  49

 C         -3.5356100003        0.9747100002        0.7791799998
 H         -4.5509721047        1.1796989674        1.0600588428
 C         -2.8236226914        1.5941965108       -0.2689780205
 H         -3.1943305841        2.3652986008       -0.9194830626
 C         -1.5030457939        1.0649592251       -0.2727290886
 C         -2.6608721383        0.0845926212        1.4370704504
 H         -2.8952559759       -0.4874795849        2.3156123100
 C         -1.4066011793        0.1472506115        0.8034717423
 H         -0.5329753398       -0.4115083554        1.0825431174
 C         -4.6926056677       -0.6704977205       -1.7041814570
 H         -5.6077333105       -0.1536207964       -1.4841987732
 C         -3.6774710592       -0.2350277391       -2.5869613423
 H         -3.6908716556        0.6675055678       -3.1694365631
 C         -2.6879108838       -1.2398002273       -2.6385393612
 H         -1.7905218358       -1.2212630610       -3.2273464375
 C         -4.3145703455       -1.9329586034       -1.2001261352
 H         -4.8976654242       -2.5521911512       -0.5416364595
 C         -3.0865789503       -2.2894728686       -1.7972698736
 H         -2.5468627185       -3.2047345570       -1.6388299411
 Fe        -2.9375338488       -0.3908603078       -0.6836452461
 C         -0.4538469548        1.3982528219       -1.2777997230
 H         -0.9317668732        1.7483676418       -2.1943029484
 H          0.1208840932        0.5015275627       -1.5030372404
 N          0.5026838383        2.4633572840       -0.8371921288
 C          1.2000949147        2.0493130653        0.3904064959
 H          0.4860443371        1.9512770714        1.2049868266
 H          1.6895754655        1.0908018853        0.2274392929
 H          1.9481346142        2.7930854504        0.6556982922
 C         -0.2342305319        3.7152555242       -0.5949171480
 H          0.4591448863        4.4953995814       -0.2889555318
 H         -0.7361448427        4.0151801960       -1.5129999338
 H         -0.9716921941        3.5602662932        0.1895573354
 C          1.4823749393        2.6744918378       -1.9150908132
 H          0.9605714027        2.9633829299       -2.8256144125
 H          2.1750706534        3.4642820698       -1.6348404937
 H          2.0380320940        1.7558256396       -2.0938842085
 P          0.9623037074       -2.5713525591       -0.9997729829
 F          0.2002641838       -4.0017491667       -0.9542524086
 F          0.9256464078       -2.5924165408       -2.6178415244
 F          2.3932853104       -3.3526148682       -1.0281992805
 F          1.7499684302       -1.1533643765       -1.0347857312
 F          1.0229876161       -2.5537537534        0.6230089993
 F         -0.4431480878       -1.7940624499       -0.9594558461
 C          1.2424637985        1.8025768898        7.5883183424
 C          0.6625626119        1.4923729995        8.8608930670
 N          0.1982571477        1.2440110880        9.8777004199
 H          0.5792214906        1.4612518594        6.7949759475
 H          1.3835076763        2.8792941012        7.5063842415
 H          2.2071238824        1.3048093567        7.4993923138
