 xtb: 6.6.0 (conda-forge)
          02182510123D

 49 49  0     0  0            999 V2000
    1.0550   -3.5317   -0.1435 c   0  0  0  0  0  0  0  0  0  0  0  0
    1.2037   -4.5149   -0.5530 h   0  0  0  0  0  0  0  0  0  0  0  0
    0.4034   -3.2501    1.0716 c   0  0  0  0  0  0  0  0  0  0  0  0
   -0.0464   -3.9812    1.7228 h   0  0  0  0  0  0  0  0  0  0  0  0
    0.3857   -1.8788    1.2524 c   0  0  0  0  0  0  0  0  0  0  0  0
    1.4410   -2.3421   -0.7127 c   0  0  0  0  0  0  0  0  0  0  0  0
    1.9786   -2.2300   -1.6362 h   0  0  0  0  0  0  0  0  0  0  0  0
    1.0098   -1.2704    0.1139 c   0  0  0  0  0  0  0  0  0  0  0  0
    1.5531   -0.3383    0.1671 h   0  0  0  0  0  0  0  0  0  0  0  0
   -1.7918   -2.1734   -1.2024 c   0  0  0  0  0  0  0  0  0  0  0  0
   -1.5232   -3.1335   -0.7994 h   0  0  0  0  0  0  0  0  0  0  0  0
   -2.5934   -1.2051   -0.5712 c   0  0  0  0  0  0  0  0  0  0  0  0
   -3.0910   -1.3151    0.3768 h   0  0  0  0  0  0  0  0  0  0  0  0
   -2.7399   -0.1149   -1.4642 c   0  0  0  0  0  0  0  0  0  0  0  0
   -3.3331    0.7655   -1.2962 h   0  0  0  0  0  0  0  0  0  0  0  0
   -1.3985   -1.6684   -2.4583 c   0  0  0  0  0  0  0  0  0  0  0  0
   -0.8152   -2.1936   -3.1923 h   0  0  0  0  0  0  0  0  0  0  0  0
   -2.0075   -0.4032   -2.6240 c   0  0  0  0  0  0  0  0  0  0  0  0
   -1.9297    0.2283   -3.4909 h   0  0  0  0  0  0  0  0  0  0  0  0
   -0.6605   -0.3518   -0.9248 fe  0  0  0  0  0  0  0  0  0  0  0  0
   -0.2647   -1.1598    2.3714 c   0  0  0  0  0  0  0  0  0  0  0  0
   -0.9883   -1.8124    2.8643 h   0  0  0  0  0  0  0  0  0  0  0  0
   -0.7735   -0.2678    2.0129 h   0  0  0  0  0  0  0  0  0  0  0  0
    0.7034   -0.7029    3.4592 n   0  0  0  0  0  0  0  0  0  0  0  0
    1.6632    0.2707    2.9183 c   0  0  0  0  0  0  0  0  0  0  0  0
    2.3518   -0.2157    2.2289 h   0  0  0  0  0  0  0  0  0  0  0  0
    1.1419    1.0620    2.3851 h   0  0  0  0  0  0  0  0  0  0  0  0
    2.2440    0.7095    3.7271 h   0  0  0  0  0  0  0  0  0  0  0  0
    1.4338   -1.8722    3.9644 c   0  0  0  0  0  0  0  0  0  0  0  0
    2.2094   -1.5637    4.6627 h   0  0  0  0  0  0  0  0  0  0  0  0
    0.7473   -2.5560    4.4608 h   0  0  0  0  0  0  0  0  0  0  0  0
    1.8884   -2.3857    3.1166 h   0  0  0  0  0  0  0  0  0  0  0  0
   -0.0639   -0.0687    4.5379 c   0  0  0  0  0  0  0  0  0  0  0  0
   -0.8011   -0.7641    4.9387 h   0  0  0  0  0  0  0  0  0  0  0  0
    0.6019    0.2408    5.3428 h   0  0  0  0  0  0  0  0  0  0  0  0
   -0.5815    0.8082    4.1520 h   0  0  0  0  0  0  0  0  0  0  0  0
    0.2596    2.4279   -0.7202 p   0  0  0  0  0  0  0  0  0  0  0  0
    0.7251    1.0991   -1.6423 f   0  0  0  0  0  0  0  0  0  0  0  0
   -1.1220    2.4163   -1.5185 f   0  0  0  0  0  0  0  0  0  0  0  0
    0.9698    3.3895   -1.7551 f   0  0  0  0  0  0  0  0  0  0  0  0
   -0.2036    3.6169    0.2224 f   0  0  0  0  0  0  0  0  0  0  0  0
    1.6183    2.2236    0.1279 f   0  0  0  0  0  0  0  0  0  0  0  0
   -0.4563    1.3353    0.3834 f   0  0  0  0  0  0  0  0  0  0  0  0
    4.0340    0.5122   -1.2711 c   0  0  0  0  0  0  0  0  0  0  0  0
    4.1485    0.0977    0.0912 c   0  0  0  0  0  0  0  0  0  0  0  0
    4.2286   -0.2318    1.1847 n   0  0  0  0  0  0  0  0  0  0  0  0
    3.3151   -0.1299   -1.7786 h   0  0  0  0  0  0  0  0  0  0  0  0
    3.6694    1.5376   -1.3032 h   0  0  0  0  0  0  0  0  0  0  0  0
    5.0021    0.4437   -1.7634 h   0  0  0  0  0  0  0  0  0  0  0  0
  1  2  1  0  0  0  0
  1  3  4  0  0  0  0
  3  4  1  0  0  0  0
  3  5  4  0  0  0  0
  1  6  2  0  0  0  0
  6  7  1  0  0  0  0
  5  8  4  0  0  0  0
  6  8  4  0  0  0  0
  8  9  1  0  0  0  0
 10 11  1  0  0  0  0
 10 12  4  0  0  0  0
 12 13  1  0  0  0  0
 12 14  4  0  0  0  0
 14 15  1  0  0  0  0
 10 16  4  0  0  0  0
 16 17  1  0  0  0  0
 14 18  4  0  0  0  0
 16 18  4  0  0  0  0
 18 19  1  0  0  0  0
  8 20  1  0  0  0  0
 12 20  1  0  0  0  0
 16 20  1  0  0  0  0
  5 21  1  0  0  0  0
 21 22  1  0  0  0  0
 21 23  1  0  0  0  0
 21 24  1  0  0  0  0
 24 25  1  0  0  0  0
 25 26  1  0  0  0  0
 25 27  1  0  0  0  0
 25 28  1  0  0  0  0
 24 29  1  0  0  0  0
 29 30  1  0  0  0  0
 29 31  1  0  0  0  0
 29 32  1  0  0  0  0
 24 33  1  0  0  0  0
 33 34  1  0  0  0  0
 33 35  1  0  0  0  0
 33 36  1  0  0  0  0
 37 38  1  0  0  0  0
 37 39  1  0  0  0  0
 37 40  1  0  0  0  0
 37 41  1  0  0  0  0
 37 42  1  0  0  0  0
 37 43  1  0  0  0  0
 44 45  1  0  0  0  0
 45 46  3  0  0  0  0
 44 47  1  0  0  0  0
 44 48  1  0  0  0  0
 44 49  1  0  0  0  0
M  END
