21
Generated by Python script
C  0.984900  -0.906100  -0.146300
C  1.989100  0.134300  0.261000
O  2.575100  0.826400  -0.613600
O  2.307100  0.305800  1.605000
C  -0.499100  -0.548200  0.172100
C  -1.112700  0.470200  -0.834900
C  -0.445300  1.814300  -0.870500
O  0.347500  2.099600  -1.807500
O  -0.726800  2.761100  0.109700
C  -1.311200  -1.819800  0.045200
O  -2.138300  -2.143900  0.940800
O  -1.182400  -2.619600  -1.088400
O  -0.630300  -0.093000  1.502000
H  1.260100  -1.841900  0.388800
H  1.095300  -1.115800  -1.233500
H  2.990400  0.995700  1.893300
H  -2.183100  0.632700  -0.579900
H  -1.090700  0.039200  -1.860900
H  -0.288200  3.674000  0.091300
H  -1.730900  -3.464700  -1.193600
Na  0.000000  0.000000  0.000000
