6

C -0.37104068038977744 0.007737533399088708 -0.008555173312906707
O 0.9167125824758767 -0.5047567248048801 -0.2972489426010044
H -0.5200253442438068 0.0327545240216113 1.0737104228772412
H -0.46503732563941336 1.0142924118268821 -0.4234447244145126
H -1.122347831132727 -0.642674682047763 -0.4625613691601029
H 1.5617385989298385 0.09264693760506139 0.118099786611283
