80
Molecule with solvated sphere
C  0.984900  -0.906100  -0.146300
C  1.989100  0.134300  0.261000
O  2.575100  0.826400  -0.613600
O  2.307100  0.305800  1.605000
C  -0.499100  -0.548200  0.172100
C  -1.112700  0.470200  -0.834900
C  -0.445300  1.814300  -0.870500
O  0.347500  2.099600  -1.807500
O  -0.726800  2.761100  0.109700
C  -1.311200  -1.819800  0.045200
O  -2.138300  -2.143900  0.940800
O  -1.182400  -2.619600  -1.088400
O  -0.630300  -0.093000  1.502000
H  1.260100  -1.841900  0.388800
H  1.095300  -1.115800  -1.233500
H  2.990400  0.995700  1.893300
H  -2.183100  0.632700  -0.579900
H  -1.090700  0.039200  -1.860900
H  -0.288200  3.674000  0.091300
H  -1.730900  -3.464700  -1.193600
O  2.040943  0.357758  5.993466
H  1.266295  -0.224378  5.993466
H  2.792958  -0.253335  5.993466
O  -2.498349  -1.947486  5.345628
H  -3.272996  -2.529623  5.345628
H  -1.746334  -2.558580  5.345628
O  0.392692  4.626397  4.697790
H  -0.381955  4.044260  4.697790
H  1.144707  4.015303  4.697790
O  3.013500  -3.549251  4.049952
H  2.238853  -4.131388  4.049952
H  3.765515  -4.160345  4.049952
O  -5.309737  1.300172  3.402114
H  -6.084384  0.718036  3.402114
H  -4.557722  0.689079  3.402114
O  4.899513  3.462933  2.754276
H  4.124865  2.880797  2.754276
H  5.651528  2.851840  2.754276
O  -1.557371  -5.502800  2.106438
H  -2.332018  -6.084936  2.106438
H  -0.805356  -6.113894  2.106438
O  -2.873046  5.924425  1.458600
H  -3.647693  5.342288  1.458600
H  -2.121031  5.313331  1.458600
O  6.034500  -1.839433  0.810762
H  5.259853  -2.421569  0.810762
H  6.786515  -2.450526  0.810762
O  -5.962703  -2.111017  0.162924
H  -6.737350  -2.693154  0.162924
H  -5.210688  -2.722111  0.162924
O  2.760470  6.218110  -0.484914
H  1.985823  5.635973  -0.484914
H  3.512485  5.607016  -0.484914
O  1.935007  -5.753742  -1.132752
H  1.160360  -6.335879  -1.132752
H  2.687022  -6.364836  -1.132752
O  -5.409111  3.502920  -1.780590
H  -6.183758  2.920783  -1.780590
H  -4.657095  2.891826  -1.780590
O  5.945144  1.660809  -2.428428
H  5.170496  1.078673  -2.428428
H  6.697159  1.049715  -2.428428
O  -3.309272  -4.375042  -3.076266
H  -4.083919  -4.957179  -3.076266
H  -2.557257  -4.986136  -3.076266
O  -0.677240  5.723409  -3.724104
H  -1.451887  5.141272  -3.724104
H  0.074775  5.112315  -3.724104
O  3.782545  -2.814946  -4.371942
H  3.007898  -3.397083  -4.371942
H  4.534560  -3.426040  -4.371942
O  -4.263317  0.180710  -5.019780
H  -5.037964  -0.401427  -5.019780
H  -3.511302  -0.430384  -5.019780
O  2.437090  2.765007  -5.667618
H  1.662443  2.182871  -5.667618
H  3.189105  2.153914  -5.667618
O  -0.075370  -1.662956  -6.315456
H  -0.850018  -2.245092  -6.315456
H  0.676645  -2.274050  -6.315456
