81
Solvated system with counter ions
C  0.984900  -0.906100  -0.146300
C  1.989100  0.134300  0.261000
O  2.575100  0.826400  -0.613600
O  2.307100  0.305800  1.605000
C  -0.499100  -0.548200  0.172100
C  -1.112700  0.470200  -0.834900
C  -0.445300  1.814300  -0.870500
O  0.347500  2.099600  -1.807500
O  -0.726800  2.761100  0.109700
C  -1.311200  -1.819800  0.045200
O  -2.138300  -2.143900  0.940800
O  -1.182400  -2.619600  -1.088400
O  -0.630300  -0.093000  1.502000
H  1.260100  -1.841900  0.388800
H  1.095300  -1.115800  -1.233500
H  2.990400  0.995700  1.893300
H  -2.183100  0.632700  -0.579900
H  -1.090700  0.039200  -1.860900
H  -0.288200  3.674000  0.091300
H  -1.730900  -3.464700  -1.193600
Li  6.988905  -0.039985  -0.160995
O  3.472872  0.357758  9.339005
H  2.698225  -0.224378  9.339005
H  4.224887  -0.253335  9.339005
O  -3.533959  -3.200607  8.339005
H  -4.308606  -3.782744  8.339005
H  -2.781944  -3.811701  8.339005
O  0.928640  6.946811  7.339005
H  0.153992  6.364674  7.339005
H  1.680655  6.335717  7.339005
O  4.974108  -5.673085  6.339005
H  4.199461  -6.255222  6.339005
H  5.726123  -6.284179  6.339005
O  -7.873606  1.812465  5.339005
H  -8.648253  1.230328  5.339005
H  -7.121591  1.201371  5.339005
O  7.885349  5.150893  4.339005
H  7.110701  4.568757  4.339005
H  8.637364  4.539800  4.339005
O  -2.081470  -8.688575  3.339005
H  -2.856117  -9.270711  3.339005
H  -1.329455  -9.299668  3.339005
O  -4.112340  8.950441  2.339005
H  -4.886987  8.368304  2.339005
H  -3.360325  8.339347  2.339005
O  9.637311  -3.033816  1.339005
H  8.862664  -3.615953  1.339005
H  10.389326  -3.644910  1.339005
O  -8.881521  -3.453033  0.339005
H  -9.656168  -4.035170  0.339005
H  -8.129506  -4.064127  0.339005
O  4.583531  9.403772  -0.660995
H  3.808884  8.821636  -0.660995
H  5.335546  8.792679  -0.660995
O  3.309351  -9.075929  -1.660995
H  2.534703  -9.658065  -1.660995
H  4.061366  -9.687022  -1.660995
O  -8.026999  5.212616  -2.660995
H  -8.801646  4.630480  -2.660995
H  -7.274984  4.601523  -2.660995
O  9.499380  2.369142  -3.660995
H  8.724733  1.787005  -3.660995
H  10.251395  1.758048  -3.660995
O  -4.785697  -6.947773  -4.660995
H  -5.560344  -7.529909  -4.660995
H  -4.033682  -7.558866  -4.660995
O  -0.722903  8.640154  -5.660995
H  -1.497550  8.058018  -5.660995
H  0.029112  8.029060  -5.660995
O  6.161202  -4.539615  -6.660995
H  5.386555  -5.121751  -6.660995
H  6.913217  -5.150708  -6.660995
O  -6.258357  0.084467  -7.660995
H  -7.033004  -0.497670  -7.660995
H  -5.506342  -0.526627  -7.660995
O  4.084363  4.073578  -8.660995
H  3.309716  3.491441  -8.660995
H  4.836379  3.462484  -8.660995
O  0.206140  -2.761408  -9.660995
H  -0.568507  -3.343544  -9.660995
H  0.958155  -3.372501  -9.660995
