82
Solvated system with counter ions
C  0.984900  -0.906100  -0.146300
C  1.989100  0.134300  0.261000
O  2.575100  0.826400  -0.613600
O  2.307100  0.305800  1.605000
C  -0.499100  -0.548200  0.172100
C  -1.112700  0.470200  -0.834900
C  -0.445300  1.814300  -0.870500
O  0.347500  2.099600  -1.807500
O  -0.726800  2.761100  0.109700
C  -1.311200  -1.819800  0.045200
O  -2.138300  -2.143900  0.940800
O  -1.182400  -2.619600  -1.088400
O  -0.630300  -0.093000  1.502000
H  1.260100  -1.841900  0.388800
H  1.095300  -1.115800  -1.233500
H  2.990400  0.995700  1.893300
H  -2.183100  0.632700  -0.579900
H  -1.090700  0.039200  -1.860900
H  -0.288200  3.674000  0.091300
H  -1.730900  -3.464700  -1.193600
Na  6.988905  -0.039985  -0.160995
Na  -6.967855  -0.039985  -0.160995
O  3.140568  0.357758  9.339005
H  2.365921  -0.224378  9.339005
H  3.892583  -0.253335  9.339005
O  -3.866263  -3.200607  8.339005
H  -4.640910  -3.782744  8.339005
H  -3.114248  -3.811701  8.339005
O  0.596336  6.946811  7.339005
H  -0.178311  6.364674  7.339005
H  1.348351  6.335717  7.339005
O  4.641804  -5.673085  6.339005
H  3.867157  -6.255222  6.339005
H  5.393819  -6.284179  6.339005
O  -8.205910  1.812465  5.339005
H  -8.980557  1.230328  5.339005
H  -7.453895  1.201371  5.339005
O  7.553045  5.150893  4.339005
H  6.778398  4.568757  4.339005
H  8.305060  4.539800  4.339005
O  -2.413773  -8.688575  3.339005
H  -3.188421  -9.270711  3.339005
H  -1.661758  -9.299668  3.339005
O  -4.444644  8.950441  2.339005
H  -5.219291  8.368304  2.339005
H  -3.692629  8.339347  2.339005
O  9.305007  -3.033816  1.339005
H  8.530360  -3.615953  1.339005
H  10.057022  -3.644910  1.339005
O  -9.213825  -3.453033  0.339005
H  -9.988472  -4.035170  0.339005
H  -8.461810  -4.064127  0.339005
O  4.251228  9.403772  -0.660995
H  3.476580  8.821636  -0.660995
H  5.003243  8.792679  -0.660995
O  2.977047  -9.075929  -1.660995
H  2.202400  -9.658065  -1.660995
H  3.729062  -9.687022  -1.660995
O  -8.359302  5.212616  -2.660995
H  -9.133950  4.630480  -2.660995
H  -7.607287  4.601523  -2.660995
O  9.167076  2.369142  -3.660995
H  8.392429  1.787005  -3.660995
H  9.919091  1.758048  -3.660995
O  -5.118001  -6.947773  -4.660995
H  -5.892648  -7.529909  -4.660995
H  -4.365986  -7.558866  -4.660995
O  -1.055207  8.640154  -5.660995
H  -1.829854  8.058018  -5.660995
H  -0.303192  8.029060  -5.660995
O  5.828898  -4.539615  -6.660995
H  5.054251  -5.121751  -6.660995
H  6.580913  -5.150708  -6.660995
O  -6.590661  0.084467  -7.660995
H  -7.365308  -0.497670  -7.660995
H  -5.838646  -0.526627  -7.660995
O  3.752060  4.073578  -8.660995
H  2.977413  3.491441  -8.660995
H  4.504075  3.462484  -8.660995
O  -0.126164  -2.761408  -9.660995
H  -0.900811  -3.343544  -9.660995
H  0.625851  -3.372501  -9.660995
