 xtb: 6.6.0 (conda-forge)
          01282502063D

 81 60  0     0  0            999 V2000
    0.9849   -0.9061   -0.1463 C   0  0  0  0  0  0  0  0  0  0  0  0
    1.1951    0.2063    0.8504 C   0  0  0  0  0  0  0  0  0  0  0  0
    0.3603    1.0080    1.2068 O   0  0  0  0  0  0  0  0  0  0  0  0
    2.4321    0.2172    1.3120 O   0  0  0  0  0  0  0  0  0  0  0  0
   -0.4771   -1.1591   -0.4445 C   0  0  0  0  0  0  0  0  0  0  0  0
   -1.0967   -0.3066   -1.5456 C   0  0  0  0  0  0  0  0  0  0  0  0
   -0.8808    1.1558   -1.2716 C   0  0  0  0  0  0  0  0  0  0  0  0
    0.1384    1.7553   -1.5485 O   0  0  0  0  0  0  0  0  0  0  0  0
   -1.9244    1.7413   -0.7193 O   0  0  0  0  0  0  0  0  0  0  0  0
   -1.0906   -2.4868   -0.1862 C   0  0  0  0  0  0  0  0  0  0  0  0
   -2.0607   -2.9932   -0.8540 O   0  0  0  0  0  0  0  0  0  0  0  0
   -0.2085   -3.4020    0.4019 O   0  0  0  0  0  0  0  0  0  0  0  0
   -1.3207   -1.3699    0.7000 O   0  0  0  0  0  0  0  0  0  0  0  0
    1.4348   -1.8136    0.2590 H   0  0  0  0  0  0  0  0  0  0  0  0
    1.4945   -0.6352   -1.0719 H   0  0  0  0  0  0  0  0  0  0  0  0
    2.6012    0.9413    1.9487 H   0  0  0  0  0  0  0  0  0  0  0  0
   -2.1616   -0.5327   -1.5725 H   0  0  0  0  0  0  0  0  0  0  0  0
   -0.6339   -0.5880   -2.4923 H   0  0  0  0  0  0  0  0  0  0  0  0
   -1.7564    2.6795   -0.4987 H   0  0  0  0  0  0  0  0  0  0  0  0
   -0.6979   -4.2204    0.5742 H   0  0  0  0  0  0  0  0  0  0  0  0
    6.8105    0.0929   -0.9606 Li  0  0  0  0  0  0  0  0  0  0  0  0
    3.5119    0.7486    6.5977 O   0  0  0  0  0  0  0  0  0  0  0  0
    2.9465   -0.0238    6.6923 H   0  0  0  0  0  0  0  0  0  0  0  0
    4.4134    0.4268    6.4922 H   0  0  0  0  0  0  0  0  0  0  0  0
   -0.5121   -3.0483    5.9807 O   0  0  0  0  0  0  0  0  0  0  0  0
   -1.1467   -2.6092    6.5558 H   0  0  0  0  0  0  0  0  0  0  0  0
   -0.6898   -2.7432    5.0863 H   0  0  0  0  0  0  0  0  0  0  0  0
    1.9911    5.2256    3.7433 O   0  0  0  0  0  0  0  0  0  0  0  0
    1.1066    5.3223    3.3768 H   0  0  0  0  0  0  0  0  0  0  0  0
    1.9019    4.7543    4.5777 H   0  0  0  0  0  0  0  0  0  0  0  0
    4.4710   -3.9006    4.2809 O   0  0  0  0  0  0  0  0  0  0  0  0
    3.6836   -3.6303    3.7971 H   0  0  0  0  0  0  0  0  0  0  0  0
    4.1719   -4.3866    5.0558 H   0  0  0  0  0  0  0  0  0  0  0  0
   -4.6947    0.0501    4.8679 O   0  0  0  0  0  0  0  0  0  0  0  0
   -5.6205   -0.0324    4.6176 H   0  0  0  0  0  0  0  0  0  0  0  0
   -4.1888    0.1310    4.0533 H   0  0  0  0  0  0  0  0  0  0  0  0
    7.2740    2.9504    3.3373 O   0  0  0  0  0  0  0  0  0  0  0  0
    6.3762    3.2754    3.4533 H   0  0  0  0  0  0  0  0  0  0  0  0
    7.7593    3.6341    2.8653 H   0  0  0  0  0  0  0  0  0  0  0  0
   -0.4744   -7.7690    3.7840 O   0  0  0  0  0  0  0  0  0  0  0  0
   -1.2521   -7.2996    4.1009 H   0  0  0  0  0  0  0  0  0  0  0  0
    0.2745   -7.4497    4.2981 H   0  0  0  0  0  0  0  0  0  0  0  0
   -3.4243    6.2056    2.2258 O   0  0  0  0  0  0  0  0  0  0  0  0
   -3.8644    6.7237    1.5446 H   0  0  0  0  0  0  0  0  0  0  0  0
   -4.0172    5.4829    2.4547 H   0  0  0  0  0  0  0  0  0  0  0  0
    6.4297   -1.2003    0.1824 O   0  0  0  0  0  0  0  0  0  0  0  0
    6.0224   -2.0651    0.0430 H   0  0  0  0  0  0  0  0  0  0  0  0
    6.6433   -1.1891    1.1254 H   0  0  0  0  0  0  0  0  0  0  0  0
   -6.9741   -0.7178    0.1367 O   0  0  0  0  0  0  0  0  0  0  0  0
   -6.3219   -1.4249    0.1388 H   0  0  0  0  0  0  0  0  0  0  0  0
   -6.4970    0.1017   -0.0304 H   0  0  0  0  0  0  0  0  0  0  0  0
    5.2033    5.1531   -0.7357 O   0  0  0  0  0  0  0  0  0  0  0  0
    5.0969    5.2492   -1.6868 H   0  0  0  0  0  0  0  0  0  0  0  0
    4.3224    5.0570   -0.3616 H   0  0  0  0  0  0  0  0  0  0  0  0
    3.5780   -5.4035   -2.2123 O   0  0  0  0  0  0  0  0  0  0  0  0
    2.7120   -5.1759   -2.5613 H   0  0  0  0  0  0  0  0  0  0  0  0
    3.4441   -5.7304   -1.3174 H   0  0  0  0  0  0  0  0  0  0  0  0
   -6.4776    4.5784   -1.7696 O   0  0  0  0  0  0  0  0  0  0  0  0
   -7.3330    4.2770   -2.0910 H   0  0  0  0  0  0  0  0  0  0  0  0
   -5.8077    4.1186   -2.2854 H   0  0  0  0  0  0  0  0  0  0  0  0
    8.0866    0.9625   -1.8127 O   0  0  0  0  0  0  0  0  0  0  0  0
    8.3281    1.8972   -1.7690 H   0  0  0  0  0  0  0  0  0  0  0  0
    8.7150    0.5828   -2.4408 H   0  0  0  0  0  0  0  0  0  0  0  0
   -1.6108   -3.0114   -3.4960 O   0  0  0  0  0  0  0  0  0  0  0  0
   -2.1506   -3.7269   -3.8473 H   0  0  0  0  0  0  0  0  0  0  0  0
   -1.7859   -3.0086   -2.5265 H   0  0  0  0  0  0  0  0  0  0  0  0
    1.4557    6.1630   -4.5691 O   0  0  0  0  0  0  0  0  0  0  0  0
    0.6739    6.7233   -4.5645 H   0  0  0  0  0  0  0  0  0  0  0  0
    1.1878    5.3000   -4.2391 H   0  0  0  0  0  0  0  0  0  0  0  0
    7.6797   -3.1276   -5.0836 O   0  0  0  0  0  0  0  0  0  0  0  0
    7.2189   -3.7782   -4.5455 H   0  0  0  0  0  0  0  0  0  0  0  0
    7.2174   -3.0826   -5.9252 H   0  0  0  0  0  0  0  0  0  0  0  0
   -6.0089    0.3013   -5.0241 O   0  0  0  0  0  0  0  0  0  0  0  0
   -6.6853   -0.2948   -4.6910 H   0  0  0  0  0  0  0  0  0  0  0  0
   -5.1620   -0.1397   -4.9085 H   0  0  0  0  0  0  0  0  0  0  0  0
    5.5665    2.1025   -5.2458 O   0  0  0  0  0  0  0  0  0  0  0  0
    4.6150    2.2116   -5.1539 H   0  0  0  0  0  0  0  0  0  0  0  0
    5.7072    1.3484   -5.8287 H   0  0  0  0  0  0  0  0  0  0  0  0
    2.2102   -1.5341   -6.7361 O   0  0  0  0  0  0  0  0  0  0  0  0
    1.3715   -1.0707   -6.6541 H   0  0  0  0  0  0  0  0  0  0  0  0
    2.1418   -2.3314   -6.2021 H   0  0  0  0  0  0  0  0  0  0  0  0
  1  2  1  0  0  0  0
  2  3  2  0  0  0  0
  2  4  1  0  0  0  0
  1  5  1  0  0  0  0
  5  6  1  0  0  0  0
  6  7  1  0  0  0  0
  7  8  2  0  0  0  0
  7  9  1  0  0  0  0
  5 10  1  0  0  0  0
 10 11  4  0  0  0  0
 10 12  1  0  0  0  0
  5 13  1  0  0  0  0
 10 13  1  0  0  0  0
  1 14  1  0  0  0  0
  1 15  1  0  0  0  0
  4 16  1  0  0  0  0
  6 17  1  0  0  0  0
  6 18  1  0  0  0  0
  9 19  1  0  0  0  0
 12 20  1  0  0  0  0
 22 23  1  0  0  0  0
 22 24  1  0  0  0  0
 25 26  1  0  0  0  0
 25 27  1  0  0  0  0
 28 29  1  0  0  0  0
 28 30  1  0  0  0  0
 31 32  1  0  0  0  0
 31 33  1  0  0  0  0
 34 35  1  0  0  0  0
 34 36  1  0  0  0  0
 37 38  1  0  0  0  0
 37 39  1  0  0  0  0
 40 41  1  0  0  0  0
 40 42  1  0  0  0  0
 43 44  1  0  0  0  0
 43 45  1  0  0  0  0
 46 47  1  0  0  0  0
 46 48  1  0  0  0  0
 49 50  1  0  0  0  0
 49 51  1  0  0  0  0
 52 53  1  0  0  0  0
 52 54  1  0  0  0  0
 55 56  1  0  0  0  0
 55 57  1  0  0  0  0
 58 59  1  0  0  0  0
 58 60  1  0  0  0  0
 61 62  1  0  0  0  0
 61 63  1  0  0  0  0
 64 65  1  0  0  0  0
 64 66  1  0  0  0  0
 67 68  1  0  0  0  0
 67 69  1  0  0  0  0
 70 71  1  0  0  0  0
 70 72  1  0  0  0  0
 73 74  1  0  0  0  0
 73 75  1  0  0  0  0
 76 77  1  0  0  0  0
 76 78  1  0  0  0  0
 79 80  1  0  0  0  0
 79 81  1  0  0  0  0
M  END
