 xtb: 6.6.0 (conda-forge)
          01282501513D

 82 59  0     0  0            999 V2000
    0.9849   -0.9061   -0.1463 C   0  0  0  0  0  0  0  0  0  0  0  0
    0.9839   -1.5085    1.2119 C   0  0  0  0  0  0  0  0  0  0  0  0
    1.3799   -0.9519    2.2217 O   0  0  0  0  0  0  0  0  0  0  0  0
    0.4364   -2.7195    1.2642 O   0  0  0  0  0  0  0  0  0  0  0  0
   -0.3872   -0.1708   -0.2670 C   0  0  0  0  0  0  0  0  0  0  0  0
   -0.3422    0.6056   -1.7617 C   0  0  0  0  0  0  0  0  0  0  0  0
   -0.0118    1.9955   -1.5000 C   0  0  0  0  0  0  0  0  0  0  0  0
    1.1389    2.4392   -1.2223 O   0  0  0  0  0  0  0  0  0  0  0  0
   -1.0949    2.7976   -1.2642 O   0  0  0  0  0  0  0  0  0  0  0  0
   -1.4835   -1.1507   -0.4542 C   0  0  0  0  0  0  0  0  0  0  0  0
   -2.6707   -0.8868   -0.1646 O   0  0  0  0  0  0  0  0  0  0  0  0
   -1.1988   -2.2710   -1.1535 O   0  0  0  0  0  0  0  0  0  0  0  0
   -0.6464    0.7039    0.7149 O   0  0  0  0  0  0  0  0  0  0  0  0
    1.0478   -1.6741   -0.9102 H   0  0  0  0  0  0  0  0  0  0  0  0
    1.7823   -0.1748   -0.2342 H   0  0  0  0  0  0  0  0  0  0  0  0
    0.4012   -3.0639    2.1790 H   0  0  0  0  0  0  0  0  0  0  0  0
   -1.3352    0.5230   -2.1939 H   0  0  0  0  0  0  0  0  0  0  0  0
    0.4013    0.0898   -2.3575 H   0  0  0  0  0  0  0  0  0  0  0  0
   -0.7781    3.6718   -0.9789 H   0  0  0  0  0  0  0  0  0  0  0  0
   -2.0240   -2.7622   -1.3210 H   0  0  0  0  0  0  0  0  0  0  0  0
    1.9949    1.9813    1.6490 Na  0  0  0  0  0  0  0  0  0  0  0  0
   -2.6023    1.0543    0.6354 Na  0  0  0  0  0  0  0  0  0  0  0  0
    3.2622    0.0467    7.0921 O   0  0  0  0  0  0  0  0  0  0  0  0
    2.4308   -0.0869    6.6279 H   0  0  0  0  0  0  0  0  0  0  0  0
    3.7474    0.7240    6.6068 H   0  0  0  0  0  0  0  0  0  0  0  0
   -3.6965   -2.5385    4.4842 O   0  0  0  0  0  0  0  0  0  0  0  0
   -4.5979   -2.2119    4.3791 H   0  0  0  0  0  0  0  0  0  0  0  0
   -3.2018   -1.8596    4.9536 H   0  0  0  0  0  0  0  0  0  0  0  0
   -0.0824    3.9325    4.7417 O   0  0  0  0  0  0  0  0  0  0  0  0
   -0.8346    4.3352    4.2974 H   0  0  0  0  0  0  0  0  0  0  0  0
   -0.4264    3.2255    5.2940 H   0  0  0  0  0  0  0  0  0  0  0  0
    4.0926   -4.6340    4.8883 O   0  0  0  0  0  0  0  0  0  0  0  0
    4.3774   -3.7730    4.5583 H   0  0  0  0  0  0  0  0  0  0  0  0
    3.8451   -4.5032    5.8120 H   0  0  0  0  0  0  0  0  0  0  0  0
   -5.9542    2.1508    5.4251 O   0  0  0  0  0  0  0  0  0  0  0  0
   -5.0697    2.4925    5.2490 H   0  0  0  0  0  0  0  0  0  0  0  0
   -6.5695    2.8234    5.1213 H   0  0  0  0  0  0  0  0  0  0  0  0
    4.3590    3.5652    2.8223 O   0  0  0  0  0  0  0  0  0  0  0  0
    4.3067    4.1901    3.5534 H   0  0  0  0  0  0  0  0  0  0  0  0
    5.1761    3.7734    2.3629 H   0  0  0  0  0  0  0  0  0  0  0  0
   -2.5410   -7.0187    1.7171 O   0  0  0  0  0  0  0  0  0  0  0  0
   -3.0265   -6.1875    1.6593 H   0  0  0  0  0  0  0  0  0  0  0  0
   -2.0924   -7.0134    2.5622 H   0  0  0  0  0  0  0  0  0  0  0  0
   -4.4627    5.8939    1.9941 O   0  0  0  0  0  0  0  0  0  0  0  0
   -5.3211    5.8964    1.5596 H   0  0  0  0  0  0  0  0  0  0  0  0
   -3.8295    6.2415    1.3611 H   0  0  0  0  0  0  0  0  0  0  0  0
    4.1850    0.4558    0.0675 O   0  0  0  0  0  0  0  0  0  0  0  0
    4.0048    0.7255   -0.8551 H   0  0  0  0  0  0  0  0  0  0  0  0
    5.0414    0.0246    0.0467 H   0  0  0  0  0  0  0  0  0  0  0  0
   -4.7921    1.0274    0.6751 O   0  0  0  0  0  0  0  0  0  0  0  0
   -5.6918    1.3722    0.7872 H   0  0  0  0  0  0  0  0  0  0  0  0
   -4.9180    0.1611    0.2631 H   0  0  0  0  0  0  0  0  0  0  0  0
    2.9315    7.1451    0.2782 O   0  0  0  0  0  0  0  0  0  0  0  0
    2.0992    7.2167    0.7561 H   0  0  0  0  0  0  0  0  0  0  0  0
    2.7280    6.8015   -0.5969 H   0  0  0  0  0  0  0  0  0  0  0  0
    0.9515   -7.3372   -2.1369 O   0  0  0  0  0  0  0  0  0  0  0  0
    0.8089   -6.5416   -1.6192 H   0  0  0  0  0  0  0  0  0  0  0  0
    0.6363   -8.0803   -1.6078 H   0  0  0  0  0  0  0  0  0  0  0  0
   -6.0898    4.6379   -2.8835 O   0  0  0  0  0  0  0  0  0  0  0  0
   -6.6250    3.8543   -3.0495 H   0  0  0  0  0  0  0  0  0  0  0  0
   -5.1731    4.3407   -2.8208 H   0  0  0  0  0  0  0  0  0  0  0  0
    3.3930    1.4696   -2.3728 O   0  0  0  0  0  0  0  0  0  0  0  0
    2.5543    1.8146   -2.0092 H   0  0  0  0  0  0  0  0  0  0  0  0
    3.8581    2.2370   -2.7190 H   0  0  0  0  0  0  0  0  0  0  0  0
   -3.8818   -5.8743   -4.3350 O   0  0  0  0  0  0  0  0  0  0  0  0
   -4.3193   -6.5189   -3.7796 H   0  0  0  0  0  0  0  0  0  0  0  0
   -2.9872   -6.1980   -4.4920 H   0  0  0  0  0  0  0  0  0  0  0  0
   -0.3706    7.1254   -4.1784 O   0  0  0  0  0  0  0  0  0  0  0  0
   -1.1641    6.7026   -4.5204 H   0  0  0  0  0  0  0  0  0  0  0  0
    0.3664    6.8144   -4.7140 H   0  0  0  0  0  0  0  0  0  0  0  0
    4.0463   -4.1911   -5.5282 O   0  0  0  0  0  0  0  0  0  0  0  0
    3.6047   -4.4949   -4.7294 H   0  0  0  0  0  0  0  0  0  0  0  0
    4.8594   -4.7000   -5.6069 H   0  0  0  0  0  0  0  0  0  0  0  0
   -4.4186   -0.0017   -4.3886 O   0  0  0  0  0  0  0  0  0  0  0  0
   -4.6726   -0.9179   -4.5363 H   0  0  0  0  0  0  0  0  0  0  0  0
   -4.1264    0.3501   -5.2300 H   0  0  0  0  0  0  0  0  0  0  0  0
    1.5287    2.8687   -6.8871 O   0  0  0  0  0  0  0  0  0  0  0  0
    0.8585    2.4103   -6.3796 H   0  0  0  0  0  0  0  0  0  0  0  0
    2.2297    2.2278   -7.0476 H   0  0  0  0  0  0  0  0  0  0  0  0
   -0.5526   -2.0893   -6.9195 O   0  0  0  0  0  0  0  0  0  0  0  0
   -0.4800   -2.5166   -6.0498 H   0  0  0  0  0  0  0  0  0  0  0  0
    0.2556   -2.3003   -7.4001 H   0  0  0  0  0  0  0  0  0  0  0  0
  1  2  1  0  0  0  0
  2  3  2  0  0  0  0
  2  4  1  0  0  0  0
  1  5  1  0  0  0  0
  5  6  1  0  0  0  0
  6  7  1  0  0  0  0
  7  8  4  0  0  0  0
  7  9  1  0  0  0  0
  5 10  1  0  0  0  0
 10 11  4  0  0  0  0
 10 12  1  0  0  0  0
  5 13  1  0  0  0  0
  1 14  1  0  0  0  0
  1 15  1  0  0  0  0
  4 16  1  0  0  0  0
  6 17  1  0  0  0  0
  6 18  1  0  0  0  0
  9 19  1  0  0  0  0
 12 20  1  0  0  0  0
 23 24  1  0  0  0  0
 23 25  1  0  0  0  0
 26 27  1  0  0  0  0
 26 28  1  0  0  0  0
 29 30  1  0  0  0  0
 29 31  1  0  0  0  0
 32 33  1  0  0  0  0
 32 34  1  0  0  0  0
 35 36  1  0  0  0  0
 35 37  1  0  0  0  0
 38 39  1  0  0  0  0
 38 40  1  0  0  0  0
 41 42  1  0  0  0  0
 41 43  1  0  0  0  0
 44 45  1  0  0  0  0
 44 46  1  0  0  0  0
 47 48  1  0  0  0  0
 47 49  1  0  0  0  0
 50 51  1  0  0  0  0
 50 52  1  0  0  0  0
 53 54  1  0  0  0  0
 53 55  1  0  0  0  0
 56 57  1  0  0  0  0
 56 58  1  0  0  0  0
 59 60  1  0  0  0  0
 59 61  1  0  0  0  0
 62 63  1  0  0  0  0
 62 64  1  0  0  0  0
 65 66  1  0  0  0  0
 65 67  1  0  0  0  0
 68 69  1  0  0  0  0
 68 70  1  0  0  0  0
 71 72  1  0  0  0  0
 71 73  1  0  0  0  0
 74 75  1  0  0  0  0
 74 76  1  0  0  0  0
 77 78  1  0  0  0  0
 77 79  1  0  0  0  0
 80 81  1  0  0  0  0
 80 82  1  0  0  0  0
M  END
