 xtb: 6.6.0 (conda-forge)
          01282501383D

 82 59  0     0  0            999 V2000
    0.9849   -0.9061   -0.1463 C   0  0  0  0  0  0  0  0  0  0  0  0
    0.9032   -1.5985    1.1652 C   0  0  0  0  0  0  0  0  0  0  0  0
    1.1711   -1.0909    2.2421 O   0  0  0  0  0  0  0  0  0  0  0  0
    0.4314   -2.8422    1.0954 O   0  0  0  0  0  0  0  0  0  0  0  0
   -0.3932   -0.1993   -0.2881 C   0  0  0  0  0  0  0  0  0  0  0  0
   -0.2492    0.7069   -1.7959 C   0  0  0  0  0  0  0  0  0  0  0  0
    0.0123    2.0641   -1.4182 C   0  0  0  0  0  0  0  0  0  0  0  0
    1.1320    2.5388   -1.0648 O   0  0  0  0  0  0  0  0  0  0  0  0
   -1.1074    2.8269   -1.2059 O   0  0  0  0  0  0  0  0  0  0  0  0
   -1.4530   -1.1594   -0.6162 C   0  0  0  0  0  0  0  0  0  0  0  0
   -2.6713   -0.9138   -0.4252 O   0  0  0  0  0  0  0  0  0  0  0  0
   -1.1088   -2.2358   -1.3693 O   0  0  0  0  0  0  0  0  0  0  0  0
   -0.7182    0.6341    0.7002 O   0  0  0  0  0  0  0  0  0  0  0  0
    1.1129   -1.6184   -0.9549 H   0  0  0  0  0  0  0  0  0  0  0  0
    1.7689   -0.1549   -0.1334 H   0  0  0  0  0  0  0  0  0  0  0  0
    0.3232   -3.2352    1.9839 H   0  0  0  0  0  0  0  0  0  0  0  0
   -1.2096    0.6003   -2.2870 H   0  0  0  0  0  0  0  0  0  0  0  0
    0.5559    0.2246   -2.3326 H   0  0  0  0  0  0  0  0  0  0  0  0
   -0.8262    3.6976   -0.8773 H   0  0  0  0  0  0  0  0  0  0  0  0
   -1.9221   -2.7046   -1.6250 H   0  0  0  0  0  0  0  0  0  0  0  0
    1.8580    1.8865    1.8421 Na  0  0  0  0  0  0  0  0  0  0  0  0
   -2.6815    0.9157    0.4721 Na  0  0  0  0  0  0  0  0  0  0  0  0
    1.8931    0.1552    7.3595 O   0  0  0  0  0  0  0  0  0  0  0  0
    1.3291   -0.4111    6.8261 H   0  0  0  0  0  0  0  0  0  0  0  0
    2.7875    0.0668    7.0142 H   0  0  0  0  0  0  0  0  0  0  0  0
   -3.4116   -2.6168    4.7287 O   0  0  0  0  0  0  0  0  0  0  0  0
   -4.2824   -2.2619    4.5239 H   0  0  0  0  0  0  0  0  0  0  0  0
   -2.8776   -1.8802    5.0420 H   0  0  0  0  0  0  0  0  0  0  0  0
    0.4822    3.7759    3.8704 O   0  0  0  0  0  0  0  0  0  0  0  0
   -0.2528    4.3488    3.6331 H   0  0  0  0  0  0  0  0  0  0  0  0
    0.4100    3.6342    4.8198 H   0  0  0  0  0  0  0  0  0  0  0  0
    5.1134   -3.3650    4.7351 O   0  0  0  0  0  0  0  0  0  0  0  0
    5.2021   -2.6463    4.1009 H   0  0  0  0  0  0  0  0  0  0  0  0
    4.2161   -3.7026    4.6518 H   0  0  0  0  0  0  0  0  0  0  0  0
   -5.1086    2.2227    5.5260 O   0  0  0  0  0  0  0  0  0  0  0  0
   -4.2336    2.5476    5.2907 H   0  0  0  0  0  0  0  0  0  0  0  0
   -5.7383    2.9016    5.2659 H   0  0  0  0  0  0  0  0  0  0  0  0
    4.1883    3.3430    3.1952 O   0  0  0  0  0  0  0  0  0  0  0  0
    4.6636    3.0861    3.9922 H   0  0  0  0  0  0  0  0  0  0  0  0
    4.4954    4.2304    2.9834 H   0  0  0  0  0  0  0  0  0  0  0  0
   -2.0608   -7.2735    2.5214 O   0  0  0  0  0  0  0  0  0  0  0  0
   -2.6857   -6.7648    1.9937 H   0  0  0  0  0  0  0  0  0  0  0  0
   -2.1386   -6.9571    3.4272 H   0  0  0  0  0  0  0  0  0  0  0  0
   -4.4388    6.0066    2.0384 O   0  0  0  0  0  0  0  0  0  0  0  0
   -5.3059    6.0652    1.6256 H   0  0  0  0  0  0  0  0  0  0  0  0
   -3.7973    6.2848    1.3772 H   0  0  0  0  0  0  0  0  0  0  0  0
    4.2921    0.4755    0.5789 O   0  0  0  0  0  0  0  0  0  0  0  0
    4.0959    0.7709   -0.3296 H   0  0  0  0  0  0  0  0  0  0  0  0
    5.2482    0.3651    0.6084 H   0  0  0  0  0  0  0  0  0  0  0  0
   -4.8765    1.0663    0.5836 O   0  0  0  0  0  0  0  0  0  0  0  0
   -5.6842    1.5377    0.8412 H   0  0  0  0  0  0  0  0  0  0  0  0
   -5.1913    0.2877    0.1073 H   0  0  0  0  0  0  0  0  0  0  0  0
    3.4073    7.5040   -0.2274 O   0  0  0  0  0  0  0  0  0  0  0  0
    2.5854    8.0035   -0.2017 H   0  0  0  0  0  0  0  0  0  0  0  0
    3.2181    6.6807   -0.6893 H   0  0  0  0  0  0  0  0  0  0  0  0
    0.7861   -7.4244   -2.0219 O   0  0  0  0  0  0  0  0  0  0  0  0
    0.6214   -6.5896   -1.5719 H   0  0  0  0  0  0  0  0  0  0  0  0
    0.6225   -8.1243   -1.3818 H   0  0  0  0  0  0  0  0  0  0  0  0
   -5.9802    4.6547   -2.8139 O   0  0  0  0  0  0  0  0  0  0  0  0
   -6.4314    3.8668   -3.1319 H   0  0  0  0  0  0  0  0  0  0  0  0
   -5.0405    4.4472   -2.7936 H   0  0  0  0  0  0  0  0  0  0  0  0
    3.5271    1.5500   -1.8418 O   0  0  0  0  0  0  0  0  0  0  0  0
    2.6395    1.8918   -1.6069 H   0  0  0  0  0  0  0  0  0  0  0  0
    4.0254    2.3175   -2.1452 H   0  0  0  0  0  0  0  0  0  0  0  0
   -3.8022   -5.8357   -4.5787 O   0  0  0  0  0  0  0  0  0  0  0  0
   -4.2816   -6.6692   -4.6137 H   0  0  0  0  0  0  0  0  0  0  0  0
   -2.8715   -6.0410   -4.7122 H   0  0  0  0  0  0  0  0  0  0  0  0
   -0.3656    7.3319   -3.8367 O   0  0  0  0  0  0  0  0  0  0  0  0
   -1.1794    6.9773   -4.2096 H   0  0  0  0  0  0  0  0  0  0  0  0
    0.3584    7.0043   -4.3789 H   0  0  0  0  0  0  0  0  0  0  0  0
    3.8830   -4.4495   -5.7019 O   0  0  0  0  0  0  0  0  0  0  0  0
    3.4702   -4.7634   -4.8911 H   0  0  0  0  0  0  0  0  0  0  0  0
    4.7123   -4.9276   -5.7993 H   0  0  0  0  0  0  0  0  0  0  0  0
   -5.3193   -0.4325   -4.5668 O   0  0  0  0  0  0  0  0  0  0  0  0
   -5.3985   -1.3825   -4.4398 H   0  0  0  0  0  0  0  0  0  0  0  0
   -4.6131   -0.2923   -5.2041 H   0  0  0  0  0  0  0  0  0  0  0  0
    2.2357    3.2393   -6.5219 O   0  0  0  0  0  0  0  0  0  0  0  0
    1.5325    2.7386   -6.0975 H   0  0  0  0  0  0  0  0  0  0  0  0
    2.9626    2.6276   -6.6744 H   0  0  0  0  0  0  0  0  0  0  0  0
   -0.3722   -1.5886   -6.7685 O   0  0  0  0  0  0  0  0  0  0  0  0
   -0.3631   -2.2586   -6.0776 H   0  0  0  0  0  0  0  0  0  0  0  0
    0.4041   -1.7419   -7.3168 H   0  0  0  0  0  0  0  0  0  0  0  0
  1  2  1  0  0  0  0
  2  3  2  0  0  0  0
  2  4  1  0  0  0  0
  1  5  1  0  0  0  0
  5  6  1  0  0  0  0
  6  7  1  0  0  0  0
  7  8  4  0  0  0  0
  7  9  1  0  0  0  0
  5 10  1  0  0  0  0
 10 11  4  0  0  0  0
 10 12  1  0  0  0  0
  5 13  1  0  0  0  0
  1 14  1  0  0  0  0
  1 15  1  0  0  0  0
  4 16  1  0  0  0  0
  6 17  1  0  0  0  0
  6 18  1  0  0  0  0
  9 19  1  0  0  0  0
 12 20  1  0  0  0  0
 23 24  1  0  0  0  0
 23 25  1  0  0  0  0
 26 27  1  0  0  0  0
 26 28  1  0  0  0  0
 29 30  1  0  0  0  0
 29 31  1  0  0  0  0
 32 33  1  0  0  0  0
 32 34  1  0  0  0  0
 35 36  1  0  0  0  0
 35 37  1  0  0  0  0
 38 39  1  0  0  0  0
 38 40  1  0  0  0  0
 41 42  1  0  0  0  0
 41 43  1  0  0  0  0
 44 45  1  0  0  0  0
 44 46  1  0  0  0  0
 47 48  1  0  0  0  0
 47 49  1  0  0  0  0
 50 51  1  0  0  0  0
 50 52  1  0  0  0  0
 53 54  1  0  0  0  0
 53 55  1  0  0  0  0
 56 57  1  0  0  0  0
 56 58  1  0  0  0  0
 59 60  1  0  0  0  0
 59 61  1  0  0  0  0
 62 63  1  0  0  0  0
 62 64  1  0  0  0  0
 65 66  1  0  0  0  0
 65 67  1  0  0  0  0
 68 69  1  0  0  0  0
 68 70  1  0  0  0  0
 71 72  1  0  0  0  0
 71 73  1  0  0  0  0
 74 75  1  0  0  0  0
 74 76  1  0  0  0  0
 77 78  1  0  0  0  0
 77 79  1  0  0  0  0
 80 81  1  0  0  0  0
 80 82  1  0  0  0  0
M  END
