 xtb: 6.6.0 (conda-forge)
          01282500443D

 21 19  0     0  0            999 V2000
    0.9849   -0.9061   -0.1463 C   0  0  0  0  0  0  0  0  0  0  0  0
    1.9190   -0.8935    1.0008 C   0  0  0  0  0  0  0  0  0  0  0  0
    2.3783    0.1394    1.4607 O   0  0  0  0  0  0  0  0  0  0  0  0
    2.1684   -2.0702    1.5252 O   0  0  0  0  0  0  0  0  0  0  0  0
   -0.4641   -0.5866    0.4785 C   0  0  0  0  0  0  0  0  0  0  0  0
   -1.3391   -0.0405   -0.6972 C   0  0  0  0  0  0  0  0  0  0  0  0
   -1.1023    1.4370   -0.7708 C   0  0  0  0  0  0  0  0  0  0  0  0
   -0.0181    1.9700   -0.6220 O   0  0  0  0  0  0  0  0  0  0  0  0
   -2.1938    2.1297   -0.9846 O   0  0  0  0  0  0  0  0  0  0  0  0
   -0.9651   -1.9793    0.8995 C   0  0  0  0  0  0  0  0  0  0  0  0
   -0.8189   -2.4356    2.0110 O   0  0  0  0  0  0  0  0  0  0  0  0
   -1.5641   -2.6540   -0.0697 O   0  0  0  0  0  0  0  0  0  0  0  0
   -0.4397    0.2468    1.5178 O   0  0  0  0  0  0  0  0  0  0  0  0
    0.9678   -1.8709   -0.6463 H   0  0  0  0  0  0  0  0  0  0  0  0
    1.2347   -0.0959   -0.8269 H   0  0  0  0  0  0  0  0  0  0  0  0
    2.7182   -2.0060    2.3320 H   0  0  0  0  0  0  0  0  0  0  0  0
   -2.3941   -0.2057   -0.4871 H   0  0  0  0  0  0  0  0  0  0  0  0
   -1.0798   -0.5242   -1.6372 H   0  0  0  0  0  0  0  0  0  0  0  0
   -2.0346    3.0958   -1.0178 H   0  0  0  0  0  0  0  0  0  0  0  0
   -1.8653   -3.5392    0.2230 H   0  0  0  0  0  0  0  0  0  0  0  0
    0.9237    1.5685    1.2177 Na  0  0  0  0  0  0  0  0  0  0  0  0
  1  2  1  0  0  0  0
  2  3  2  0  0  0  0
  2  4  4  0  0  0  0
  1  5  1  0  0  0  0
  5  6  1  0  0  0  0
  6  7  1  0  0  0  0
  7  8  2  0  0  0  0
  7  9  4  0  0  0  0
  5 10  1  0  0  0  0
 10 11  2  0  0  0  0
 10 12  1  0  0  0  0
  5 13  1  0  0  0  0
  1 14  1  0  0  0  0
  1 15  1  0  0  0  0
  4 16  1  0  0  0  0
  6 17  1  0  0  0  0
  6 18  1  0  0  0  0
  9 19  1  0  0  0  0
 12 20  1  0  0  0  0
M  END
