 xtb: 6.6.0 (conda-forge)
          03032513593D

173158  0     0  0            999 V2000
   -2.4829   -3.1223   -0.5882 C   0  0  0  0  0  0  0  0  0  0  0  0
   -3.1233   -3.9726   -0.7223 H   0  0  0  0  0  0  0  0  0  0  0  0
   -1.8078   -2.7736    0.6010 C   0  0  0  0  0  0  0  0  0  0  0  0
   -1.8341   -3.3195    1.5268 H   0  0  0  0  0  0  0  0  0  0  0  0
   -1.0492   -1.5961    0.3460 C   0  0  0  0  0  0  0  0  0  0  0  0
   -2.1479   -2.1757   -1.5809 C   0  0  0  0  0  0  0  0  0  0  0  0
   -2.4736   -2.1993   -2.6050 H   0  0  0  0  0  0  0  0  0  0  0  0
   -1.2657   -1.2313   -1.0112 C   0  0  0  0  0  0  0  0  0  0  0  0
   -0.8160   -0.3971   -1.5156 H   0  0  0  0  0  0  0  0  0  0  0  0
   -5.0601   -1.2405    0.5443 C   0  0  0  0  0  0  0  0  0  0  0  0
   -5.7450   -2.0543    0.3946 H   0  0  0  0  0  0  0  0  0  0  0  0
   -4.2856   -1.0074    1.7021 C   0  0  0  0  0  0  0  0  0  0  0  0
   -4.2820   -1.6110    2.5905 H   0  0  0  0  0  0  0  0  0  0  0  0
   -3.5563    0.1859    1.5035 C   0  0  0  0  0  0  0  0  0  0  0  0
   -2.8923    0.6582    2.2023 H   0  0  0  0  0  0  0  0  0  0  0  0
   -4.8099   -0.1911   -0.3684 C   0  0  0  0  0  0  0  0  0  0  0  0
   -5.2913   -0.0660   -1.3218 H   0  0  0  0  0  0  0  0  0  0  0  0
   -3.8798    0.6905    0.2277 C   0  0  0  0  0  0  0  0  0  0  0  0
   -3.4960    1.6035   -0.1877 H   0  0  0  0  0  0  0  0  0  0  0  0
   -3.0395   -1.2202    0.0790 Fe  0  0  0  0  0  0  0  0  0  0  0  0
   -0.2615   -0.8361    1.3581 C   0  0  0  0  0  0  0  0  0  0  0  0
   -0.6442   -1.0644    2.3540 H   0  0  0  0  0  0  0  0  0  0  0  0
   -0.3844    0.2319    1.1792 H   0  0  0  0  0  0  0  0  0  0  0  0
    1.2084   -1.1379    1.3551 N   0  0  0  0  0  0  0  0  0  0  0  0
    1.7701   -0.7727    0.0155 C   0  0  0  0  0  0  0  0  0  0  0  0
    1.3103   -1.4357   -0.7195 H   0  0  0  0  0  0  0  0  0  0  0  0
    1.4620    0.2538   -0.1937 H   0  0  0  0  0  0  0  0  0  0  0  0
    1.4160   -2.5711    1.6289 C   0  0  0  0  0  0  0  0  0  0  0  0
    2.4805   -2.7930    1.6344 H   0  0  0  0  0  0  0  0  0  0  0  0
    0.9936   -2.8184    2.6000 H   0  0  0  0  0  0  0  0  0  0  0  0
    0.9221   -3.1664    0.8634 H   0  0  0  0  0  0  0  0  0  0  0  0
    1.8440   -0.3376    2.4157 C   0  0  0  0  0  0  0  0  0  0  0  0
    1.3939   -0.5756    3.3768 H   0  0  0  0  0  0  0  0  0  0  0  0
    2.9091   -0.5535    2.4546 H   0  0  0  0  0  0  0  0  0  0  0  0
    1.7010    0.7219    2.2127 H   0  0  0  0  0  0  0  0  0  0  0  0
   -0.4340    3.2220    0.1871 P   0  0  0  0  0  0  0  0  0  0  0  0
   -1.8315    3.7806   -0.4176 F   0  0  0  0  0  0  0  0  0  0  0  0
   -0.5720    1.8896   -0.7221 F   0  0  0  0  0  0  0  0  0  0  0  0
   -1.2347    2.4914    1.3846 F   0  0  0  0  0  0  0  0  0  0  0  0
    0.9628    2.6452    0.7857 F   0  0  0  0  0  0  0  0  0  0  0  0
   -0.2859    4.5567    1.0962 F   0  0  0  0  0  0  0  0  0  0  0  0
    0.3783    3.9542   -1.0104 F   0  0  0  0  0  0  0  0  0  0  0  0
    3.2707   -0.8677   -0.0770 C   0  0  0  0  0  0  0  0  0  0  0  0
    4.0561    0.2495    0.1902 C   0  0  0  0  0  0  0  0  0  0  0  0
    3.8889   -2.0512   -0.4669 C   0  0  0  0  0  0  0  0  0  0  0  0
    5.4346    0.1770    0.0928 C   0  0  0  0  0  0  0  0  0  0  0  0
    3.5846    1.1831    0.4603 H   0  0  0  0  0  0  0  0  0  0  0  0
    5.2683   -2.1226   -0.5615 C   0  0  0  0  0  0  0  0  0  0  0  0
    3.2956   -2.9184   -0.7124 H   0  0  0  0  0  0  0  0  0  0  0  0
    6.0441   -1.0112   -0.2771 C   0  0  0  0  0  0  0  0  0  0  0  0
    6.0314    1.0515    0.3011 H   0  0  0  0  0  0  0  0  0  0  0  0
    5.7359   -3.0463   -0.8653 H   0  0  0  0  0  0  0  0  0  0  0  0
    7.1192   -1.0645   -0.3554 H   0  0  0  0  0  0  0  0  0  0  0  0
    3.1287    0.0387    8.5011 C   0  0  0  0  0  0  0  0  0  0  0  0
    3.8270   -0.6355    7.4483 C   0  0  0  0  0  0  0  0  0  0  0  0
    4.3806   -1.1808    6.6074 N   0  0  0  0  0  0  0  0  0  0  0  0
    3.3971   -0.4055    9.4587 H   0  0  0  0  0  0  0  0  0  0  0  0
    3.4001    1.0936    8.5001 H   0  0  0  0  0  0  0  0  0  0  0  0
    2.0556   -0.0578    8.3406 H   0  0  0  0  0  0  0  0  0  0  0  0
   -2.6041   -4.3822    7.8821 C   0  0  0  0  0  0  0  0  0  0  0  0
   -1.7172   -3.6055    7.0706 C   0  0  0  0  0  0  0  0  0  0  0  0
   -1.0074   -2.9842    6.4215 N   0  0  0  0  0  0  0  0  0  0  0  0
   -2.1403   -5.3405    8.1123 H   0  0  0  0  0  0  0  0  0  0  0  0
   -2.8168   -3.8462    8.8062 H   0  0  0  0  0  0  0  0  0  0  0  0
   -3.5334   -4.5515    7.3399 H   0  0  0  0  0  0  0  0  0  0  0  0
    1.1114    5.5487    4.2255 C   0  0  0  0  0  0  0  0  0  0  0  0
    0.8559    4.3872    5.0217 C   0  0  0  0  0  0  0  0  0  0  0  0
    0.6480    3.4546    5.6527 N   0  0  0  0  0  0  0  0  0  0  0  0
    0.5303    6.3887    4.6029 H   0  0  0  0  0  0  0  0  0  0  0  0
    2.1716    5.7940    4.2627 H   0  0  0  0  0  0  0  0  0  0  0  0
    0.8223    5.3452    3.1948 H   0  0  0  0  0  0  0  0  0  0  0  0
    2.7979   -6.3897    5.2220 C   0  0  0  0  0  0  0  0  0  0  0  0
    3.7814   -7.3852    5.5280 C   0  0  0  0  0  0  0  0  0  0  0  0
    4.5713   -8.1793    5.7666 N   0  0  0  0  0  0  0  0  0  0  0  0
    1.9459   -6.5040    5.8905 H   0  0  0  0  0  0  0  0  0  0  0  0
    3.2314   -5.3993    5.3535 H   0  0  0  0  0  0  0  0  0  0  0  0
    2.4672   -6.5149    4.1921 H   0  0  0  0  0  0  0  0  0  0  0  0
   -4.0009    1.4480    6.7780 C   0  0  0  0  0  0  0  0  0  0  0  0
   -4.8973    0.4048    7.1780 C   0  0  0  0  0  0  0  0  0  0  0  0
   -5.6135   -0.4298    7.4968 N   0  0  0  0  0  0  0  0  0  0  0  0
   -3.8815    2.1593    7.5941 H   0  0  0  0  0  0  0  0  0  0  0  0
   -3.0315    1.0195    6.5285 H   0  0  0  0  0  0  0  0  0  0  0  0
   -4.4050    1.9610    5.9065 H   0  0  0  0  0  0  0  0  0  0  0  0
    6.3405    3.0423    4.5520 C   0  0  0  0  0  0  0  0  0  0  0  0
    6.0947    3.7923    5.7471 C   0  0  0  0  0  0  0  0  0  0  0  0
    5.8924    4.3907    6.7023 N   0  0  0  0  0  0  0  0  0  0  0  0
    6.9111    2.1472    4.7953 H   0  0  0  0  0  0  0  0  0  0  0  0
    5.3890    2.7583    4.1046 H   0  0  0  0  0  0  0  0  0  0  0  0
    6.9040    3.6538    3.8484 H   0  0  0  0  0  0  0  0  0  0  0  0
   -2.5403   -8.1256    1.6407 C   0  0  0  0  0  0  0  0  0  0  0  0
   -2.2751   -7.8207    3.0145 C   0  0  0  0  0  0  0  0  0  0  0  0
   -2.0637   -7.5745    4.1128 N   0  0  0  0  0  0  0  0  0  0  0  0
   -2.5750   -9.2063    1.5091 H   0  0  0  0  0  0  0  0  0  0  0  0
   -3.4980   -7.6952    1.3523 H   0  0  0  0  0  0  0  0  0  0  0  0
   -1.7503   -7.7109    1.0165 H   0  0  0  0  0  0  0  0  0  0  0  0
   -3.0146    6.9991    0.4822 C   0  0  0  0  0  0  0  0  0  0  0  0
   -2.0751    8.0192    0.8403 C   0  0  0  0  0  0  0  0  0  0  0  0
   -1.3297    8.8384    1.1301 N   0  0  0  0  0  0  0  0  0  0  0  0
   -3.7978    6.9460    1.2367 H   0  0  0  0  0  0  0  0  0  0  0  0
   -3.4507    7.2309   -0.4882 H   0  0  0  0  0  0  0  0  0  0  0  0
   -2.4982    6.0416    0.4259 H   0  0  0  0  0  0  0  0  0  0  0  0
    7.4333   -6.7308    1.6674 C   0  0  0  0  0  0  0  0  0  0  0  0
    7.5684   -7.1916    0.3179 C   0  0  0  0  0  0  0  0  0  0  0  0
    7.6708   -7.5543   -0.7634 N   0  0  0  0  0  0  0  0  0  0  0  0
    7.6179   -7.5552    2.3551 H   0  0  0  0  0  0  0  0  0  0  0  0
    8.1525   -5.9343    1.8535 H   0  0  0  0  0  0  0  0  0  0  0  0
    6.4234   -6.3536    1.8202 H   0  0  0  0  0  0  0  0  0  0  0  0
   -9.9062   -5.4835    1.0170 C   0  0  0  0  0  0  0  0  0  0  0  0
   -8.5993   -5.9039    0.6067 C   0  0  0  0  0  0  0  0  0  0  0  0
   -7.5553   -6.2387    0.2778 N   0  0  0  0  0  0  0  0  0  0  0  0
   -9.8161   -4.7379    1.8060 H   0  0  0  0  0  0  0  0  0  0  0  0
  -10.4312   -5.0509    0.1662 H   0  0  0  0  0  0  0  0  0  0  0  0
  -10.4633   -6.3419    1.3901 H   0  0  0  0  0  0  0  0  0  0  0  0
    2.8545    6.5279   -1.1316 C   0  0  0  0  0  0  0  0  0  0  0  0
    3.8697    5.9331   -0.3166 C   0  0  0  0  0  0  0  0  0  0  0  0
    4.6804    5.4568    0.3371 N   0  0  0  0  0  0  0  0  0  0  0  0
    2.5433    7.4749   -0.6931 H   0  0  0  0  0  0  0  0  0  0  0  0
    3.2434    6.6980   -2.1343 H   0  0  0  0  0  0  0  0  0  0  0  0
    1.9989    5.8550   -1.1834 H   0  0  0  0  0  0  0  0  0  0  0  0
    3.0809   -9.0735   -1.9725 C   0  0  0  0  0  0  0  0  0  0  0  0
    2.7567   -8.0334   -1.0443 C   0  0  0  0  0  0  0  0  0  0  0  0
    2.4960   -7.1998   -0.3041 N   0  0  0  0  0  0  0  0  0  0  0  0
    2.1619   -9.5116   -2.3633 H   0  0  0  0  0  0  0  0  0  0  0  0
    3.6645   -8.6557   -2.7936 H   0  0  0  0  0  0  0  0  0  0  0  0
    3.6675   -9.8409   -1.4672 H   0  0  0  0  0  0  0  0  0  0  0  0
   -7.8496    3.9830   -0.9663 C   0  0  0  0  0  0  0  0  0  0  0  0
   -7.8739    3.6702   -2.3644 C   0  0  0  0  0  0  0  0  0  0  0  0
   -7.8930    3.4179   -3.4809 N   0  0  0  0  0  0  0  0  0  0  0  0
   -6.8284    4.2135   -0.6651 H   0  0  0  0  0  0  0  0  0  0  0  0
   -8.4891    4.8442   -0.7764 H   0  0  0  0  0  0  0  0  0  0  0  0
   -8.2107    3.1273   -0.3973 H   0  0  0  0  0  0  0  0  0  0  0  0
    8.9257    3.1153   -2.7791 C   0  0  0  0  0  0  0  0  0  0  0  0
    9.6833    2.8152   -1.6004 C   0  0  0  0  0  0  0  0  0  0  0  0
   10.2828    2.5720   -0.6558 N   0  0  0  0  0  0  0  0  0  0  0  0
    8.0572    3.7152   -2.5093 H   0  0  0  0  0  0  0  0  0  0  0  0
    9.5466    3.6718   -3.4796 H   0  0  0  0  0  0  0  0  0  0  0  0
    8.5963    2.1873   -3.2448 H   0  0  0  0  0  0  0  0  0  0  0  0
   -4.2960   -6.9437   -4.1770 C   0  0  0  0  0  0  0  0  0  0  0  0
   -3.0508   -7.5558   -3.8222 C   0  0  0  0  0  0  0  0  0  0  0  0
   -2.0541   -8.0431   -3.5382 N   0  0  0  0  0  0  0  0  0  0  0  0
   -4.9745   -6.9776   -3.3258 H   0  0  0  0  0  0  0  0  0  0  0  0
   -4.1254   -5.9064   -4.4619 H   0  0  0  0  0  0  0  0  0  0  0  0
   -4.7390   -7.4810   -5.0145 H   0  0  0  0  0  0  0  0  0  0  0  0
   -2.9016    1.0142   -3.0225 C   0  0  0  0  0  0  0  0  0  0  0  0
   -2.1245    0.6543   -4.1670 C   0  0  0  0  0  0  0  0  0  0  0  0
   -1.5005    0.3614   -5.0819 N   0  0  0  0  0  0  0  0  0  0  0  0
   -2.3145    1.6725   -2.3850 H   0  0  0  0  0  0  0  0  0  0  0  0
   -3.8033    1.5326   -3.3413 H   0  0  0  0  0  0  0  0  0  0  0  0
   -3.1664    0.1235   -2.4526 H   0  0  0  0  0  0  0  0  0  0  0  0
    7.0567   -4.2855   -5.3511 C   0  0  0  0  0  0  0  0  0  0  0  0
    7.2431   -2.8737   -5.2196 C   0  0  0  0  0  0  0  0  0  0  0  0
    7.3882   -1.7423   -5.1105 N   0  0  0  0  0  0  0  0  0  0  0  0
    7.5444   -4.7972   -4.5224 H   0  0  0  0  0  0  0  0  0  0  0  0
    5.9893   -4.5103   -5.3395 H   0  0  0  0  0  0  0  0  0  0  0  0
    7.4877   -4.6230   -6.2925 H   0  0  0  0  0  0  0  0  0  0  0  0
   -6.7736   -0.1291   -7.0731 C   0  0  0  0  0  0  0  0  0  0  0  0
   -6.4428   -1.1582   -6.1332 C   0  0  0  0  0  0  0  0  0  0  0  0
   -6.1771   -1.9810   -5.3828 N   0  0  0  0  0  0  0  0  0  0  0  0
   -7.6906    0.3685   -6.7595 H   0  0  0  0  0  0  0  0  0  0  0  0
   -5.9634    0.5982   -7.1133 H   0  0  0  0  0  0  0  0  0  0  0  0
   -6.9163   -0.5692   -8.0594 H   0  0  0  0  0  0  0  0  0  0  0  0
    3.8152    1.8989   -5.1495 C   0  0  0  0  0  0  0  0  0  0  0  0
    4.2992    3.2267   -5.3825 C   0  0  0  0  0  0  0  0  0  0  0  0
    4.6896    4.2868   -5.5695 N   0  0  0  0  0  0  0  0  0  0  0  0
    4.3001    1.4859   -4.2662 H   0  0  0  0  0  0  0  0  0  0  0  0
    2.7376    1.9285   -4.9936 H   0  0  0  0  0  0  0  0  0  0  0  0
    4.0432    1.2743   -6.0121 H   0  0  0  0  0  0  0  0  0  0  0  0
    1.3012   -4.3136   -4.8384 C   0  0  0  0  0  0  0  0  0  0  0  0
    2.6748   -4.6147   -5.0986 C   0  0  0  0  0  0  0  0  0  0  0  0
    3.7749   -4.8559   -5.3062 N   0  0  0  0  0  0  0  0  0  0  0  0
    1.0049   -4.7596   -3.8904 H   0  0  0  0  0  0  0  0  0  0  0  0
    1.1699   -3.2334   -4.7934 H   0  0  0  0  0  0  0  0  0  0  0  0
    0.6831   -4.7205   -5.6376 H   0  0  0  0  0  0  0  0  0  0  0  0
  1  2  1  0  0  0  0
  1  3  4  0  0  0  0
  3  4  1  0  0  0  0
  3  5  4  0  0  0  0
  1  6  4  0  0  0  0
  6  7  1  0  0  0  0
  5  8  4  0  0  0  0
  6  8  4  0  0  0  0
  8  9  1  0  0  0  0
 10 11  1  0  0  0  0
 10 12  4  0  0  0  0
 12 13  1  0  0  0  0
 12 14  4  0  0  0  0
 14 15  1  0  0  0  0
 10 16  4  0  0  0  0
 16 17  1  0  0  0  0
 14 18  4  0  0  0  0
 16 18  4  0  0  0  0
 18 19  1  0  0  0  0
  3 20  1  0  0  0  0
  8 20  1  0  0  0  0
 10 20  1  0  0  0  0
 12 20  1  0  0  0  0
 14 20  1  0  0  0  0
 16 20  1  0  0  0  0
  5 21  1  0  0  0  0
 21 22  1  0  0  0  0
 21 23  1  0  0  0  0
 21 24  1  0  0  0  0
 24 25  1  0  0  0  0
 25 26  1  0  0  0  0
 25 27  1  0  0  0  0
 24 28  1  0  0  0  0
 28 29  1  0  0  0  0
 28 30  1  0  0  0  0
 28 31  1  0  0  0  0
 24 32  1  0  0  0  0
 32 33  1  0  0  0  0
 32 34  1  0  0  0  0
 32 35  1  0  0  0  0
 36 37  1  0  0  0  0
 36 38  1  0  0  0  0
 36 39  1  0  0  0  0
 36 40  1  0  0  0  0
 36 41  1  0  0  0  0
 36 42  1  0  0  0  0
 25 43  1  0  0  0  0
 43 44  4  0  0  0  0
 43 45  4  0  0  0  0
 44 46  4  0  0  0  0
 44 47  1  0  0  0  0
 45 48  4  0  0  0  0
 45 49  1  0  0  0  0
 46 50  4  0  0  0  0
 48 50  4  0  0  0  0
 46 51  1  0  0  0  0
 48 52  1  0  0  0  0
 50 53  1  0  0  0  0
 54 55  1  0  0  0  0
 55 56  3  0  0  0  0
 54 57  1  0  0  0  0
 54 58  1  0  0  0  0
 54 59  1  0  0  0  0
 60 61  1  0  0  0  0
 61 62  3  0  0  0  0
 60 63  1  0  0  0  0
 60 64  1  0  0  0  0
 60 65  1  0  0  0  0
 66 67  1  0  0  0  0
 67 68  3  0  0  0  0
 66 69  1  0  0  0  0
 66 70  1  0  0  0  0
 66 71  1  0  0  0  0
 72 73  1  0  0  0  0
 73 74  3  0  0  0  0
 72 75  1  0  0  0  0
 72 76  1  0  0  0  0
 72 77  1  0  0  0  0
 78 79  1  0  0  0  0
 79 80  3  0  0  0  0
 78 81  1  0  0  0  0
 78 82  1  0  0  0  0
 78 83  1  0  0  0  0
 84 85  1  0  0  0  0
 85 86  3  0  0  0  0
 84 87  1  0  0  0  0
 84 88  1  0  0  0  0
 84 89  1  0  0  0  0
 90 91  1  0  0  0  0
 91 92  3  0  0  0  0
 90 93  1  0  0  0  0
 90 94  1  0  0  0  0
 90 95  1  0  0  0  0
 96 97  1  0  0  0  0
 97 98  3  0  0  0  0
 96 99  1  0  0  0  0
 96100  1  0  0  0  0
 96101  1  0  0  0  0
102103  1  0  0  0  0
103104  3  0  0  0  0
102105  1  0  0  0  0
102106  1  0  0  0  0
102107  1  0  0  0  0
108109  1  0  0  0  0
109110  3  0  0  0  0
108111  1  0  0  0  0
108112  1  0  0  0  0
108113  1  0  0  0  0
114115  1  0  0  0  0
115116  3  0  0  0  0
114117  1  0  0  0  0
114118  1  0  0  0  0
114119  1  0  0  0  0
120121  1  0  0  0  0
121122  3  0  0  0  0
120123  1  0  0  0  0
120124  1  0  0  0  0
120125  1  0  0  0  0
126127  1  0  0  0  0
127128  3  0  0  0  0
126129  1  0  0  0  0
126130  1  0  0  0  0
126131  1  0  0  0  0
132133  1  0  0  0  0
133134  3  0  0  0  0
132135  1  0  0  0  0
132136  1  0  0  0  0
132137  1  0  0  0  0
138139  1  0  0  0  0
139140  3  0  0  0  0
138141  1  0  0  0  0
138142  1  0  0  0  0
138143  1  0  0  0  0
144145  1  0  0  0  0
145146  3  0  0  0  0
144147  1  0  0  0  0
144148  1  0  0  0  0
144149  1  0  0  0  0
150151  1  0  0  0  0
151152  3  0  0  0  0
150153  1  0  0  0  0
150154  1  0  0  0  0
150155  1  0  0  0  0
156157  1  0  0  0  0
157158  3  0  0  0  0
156159  1  0  0  0  0
156160  1  0  0  0  0
156161  1  0  0  0  0
162163  1  0  0  0  0
163164  3  0  0  0  0
162165  1  0  0  0  0
162166  1  0  0  0  0
162167  1  0  0  0  0
168169  1  0  0  0  0
169170  3  0  0  0  0
168171  1  0  0  0  0
168172  1  0  0  0  0
168173  1  0  0  0  0
M  END
