 xtb: 6.6.0 (conda-forge)
          02052513053D

163145  0     0  0            999 V2000
   -2.6318   -0.1735    1.2727 C   0  0  0  0  0  0  0  0  0  0  0  0
   -3.6781   -0.1750    1.5274 H   0  0  0  0  0  0  0  0  0  0  0  0
   -2.0225    0.6025    0.2557 C   0  0  0  0  0  0  0  0  0  0  0  0
   -2.5098    1.3073   -0.3939 H   0  0  0  0  0  0  0  0  0  0  0  0
   -0.6262    0.4650    0.4013 C   0  0  0  0  0  0  0  0  0  0  0  0
   -1.6039   -0.7092    2.0764 C   0  0  0  0  0  0  0  0  0  0  0  0
   -1.7469   -1.3126    2.9540 H   0  0  0  0  0  0  0  0  0  0  0  0
   -0.3813   -0.3199    1.5410 C   0  0  0  0  0  0  0  0  0  0  0  0
    0.5919   -0.6222    1.8855 H   0  0  0  0  0  0  0  0  0  0  0  0
   -4.1275   -0.5753   -1.3604 C   0  0  0  0  0  0  0  0  0  0  0  0
   -4.6878    0.2541   -0.9714 H   0  0  0  0  0  0  0  0  0  0  0  0
   -3.1036   -0.5252   -2.3340 C   0  0  0  0  0  0  0  0  0  0  0  0
   -2.7261    0.3568   -2.8184 H   0  0  0  0  0  0  0  0  0  0  0  0
   -2.7002   -1.8449   -2.6012 C   0  0  0  0  0  0  0  0  0  0  0  0
   -1.9555   -2.1418   -3.3141 H   0  0  0  0  0  0  0  0  0  0  0  0
   -4.3320   -1.9253   -1.0124 C   0  0  0  0  0  0  0  0  0  0  0  0
   -5.0842   -2.2882   -0.3361 H   0  0  0  0  0  0  0  0  0  0  0  0
   -3.4449   -2.7088   -1.7771 C   0  0  0  0  0  0  0  0  0  0  0  0
   -3.3758   -3.7814   -1.7700 H   0  0  0  0  0  0  0  0  0  0  0  0
   -2.3670   -1.2884   -0.5590 Fe  0  0  0  0  0  0  0  0  0  0  0  0
    0.3909    0.9727   -0.5562 C   0  0  0  0  0  0  0  0  0  0  0  0
   -0.0445    1.0035   -1.5537 H   0  0  0  0  0  0  0  0  0  0  0  0
    1.2490    0.3006   -0.5608 H   0  0  0  0  0  0  0  0  0  0  0  0
    0.9140    2.3469   -0.2592 N   0  0  0  0  0  0  0  0  0  0  0  0
    1.5106    2.3788    1.0796 C   0  0  0  0  0  0  0  0  0  0  0  0
    0.7505    2.1577    1.8241 H   0  0  0  0  0  0  0  0  0  0  0  0
    2.2975    1.6304    1.1393 H   0  0  0  0  0  0  0  0  0  0  0  0
    1.9253    3.3670    1.2677 H   0  0  0  0  0  0  0  0  0  0  0  0
   -0.1697    3.3315   -0.3343 C   0  0  0  0  0  0  0  0  0  0  0  0
    0.2246    4.3276   -0.1442 H   0  0  0  0  0  0  0  0  0  0  0  0
   -0.6255    3.3075   -1.3212 H   0  0  0  0  0  0  0  0  0  0  0  0
   -0.9259    3.0959    0.4097 H   0  0  0  0  0  0  0  0  0  0  0  0
    1.9392    2.6626   -1.2593 C   0  0  0  0  0  0  0  0  0  0  0  0
    1.4966    2.6401   -2.2522 H   0  0  0  0  0  0  0  0  0  0  0  0
    2.3493    3.6532   -1.0774 H   0  0  0  0  0  0  0  0  0  0  0  0
    2.7399    1.9278   -1.2048 H   0  0  0  0  0  0  0  0  0  0  0  0
    0.2884   -3.0742   -0.8624 P   0  0  0  0  0  0  0  0  0  0  0  0
   -0.7626   -3.8248   -1.8183 F   0  0  0  0  0  0  0  0  0  0  0  0
   -0.1506   -1.6409   -1.5168 F   0  0  0  0  0  0  0  0  0  0  0  0
    1.4341   -3.2107   -1.9870 F   0  0  0  0  0  0  0  0  0  0  0  0
    1.3029   -2.2823    0.0922 F   0  0  0  0  0  0  0  0  0  0  0  0
    0.7042   -4.4728   -0.2051 F   0  0  0  0  0  0  0  0  0  0  0  0
   -0.9051   -2.8959    0.2507 F   0  0  0  0  0  0  0  0  0  0  0  0
    0.0707    1.5194    4.5549 C   0  0  0  0  0  0  0  0  0  0  0  0
   -0.3658    0.9909    5.8098 C   0  0  0  0  0  0  0  0  0  0  0  0
   -0.7259    0.5614    6.8076 N   0  0  0  0  0  0  0  0  0  0  0  0
   -0.1959    0.8178    3.7622 H   0  0  0  0  0  0  0  0  0  0  0  0
   -0.4220    2.4736    4.3727 H   0  0  0  0  0  0  0  0  0  0  0  0
    1.1504    1.6707    4.5693 H   0  0  0  0  0  0  0  0  0  0  0  0
   -3.2984   -1.2907    6.1981 C   0  0  0  0  0  0  0  0  0  0  0  0
   -2.6955   -2.2914    5.3805 C   0  0  0  0  0  0  0  0  0  0  0  0
   -2.2066   -3.0873    4.7166 N   0  0  0  0  0  0  0  0  0  0  0  0
   -3.9949   -1.7534    6.8953 H   0  0  0  0  0  0  0  0  0  0  0  0
   -2.5184   -0.7604    6.7474 H   0  0  0  0  0  0  0  0  0  0  0  0
   -3.8292   -0.5760    5.5664 H   0  0  0  0  0  0  0  0  0  0  0  0
    1.5271    5.5986    3.6946 C   0  0  0  0  0  0  0  0  0  0  0  0
    0.2650    5.0525    3.3274 C   0  0  0  0  0  0  0  0  0  0  0  0
   -0.7400    4.5915    3.0264 N   0  0  0  0  0  0  0  0  0  0  0  0
    2.0723    4.8654    4.2902 H   0  0  0  0  0  0  0  0  0  0  0  0
    2.0935    5.8104    2.7857 H   0  0  0  0  0  0  0  0  0  0  0  0
    1.3867    6.5150    4.2647 H   0  0  0  0  0  0  0  0  0  0  0  0
    0.8017   -3.8843    2.9050 C   0  0  0  0  0  0  0  0  0  0  0  0
    2.1366   -3.8635    2.3999 C   0  0  0  0  0  0  0  0  0  0  0  0
    3.2089   -3.8527    1.9970 N   0  0  0  0  0  0  0  0  0  0  0  0
    0.8027   -3.7781    3.9885 H   0  0  0  0  0  0  0  0  0  0  0  0
    0.2382   -3.0660    2.4602 H   0  0  0  0  0  0  0  0  0  0  0  0
    0.3284   -4.8239    2.6264 H   0  0  0  0  0  0  0  0  0  0  0  0
   -3.3607    2.7646    2.7028 C   0  0  0  0  0  0  0  0  0  0  0  0
   -3.9808    1.9228    3.6741 C   0  0  0  0  0  0  0  0  0  0  0  0
   -4.4946    1.2411    4.4376 N   0  0  0  0  0  0  0  0  0  0  0  0
   -2.7058    3.4833    3.1921 H   0  0  0  0  0  0  0  0  0  0  0  0
   -2.7791    2.1386    2.0251 H   0  0  0  0  0  0  0  0  0  0  0  0
   -4.1285    3.2868    2.1335 H   0  0  0  0  0  0  0  0  0  0  0  0
    4.8101    3.0147    2.0650 C   0  0  0  0  0  0  0  0  0  0  0  0
    3.9336    2.8873    3.1862 C   0  0  0  0  0  0  0  0  0  0  0  0
    3.2123    2.7971    4.0711 N   0  0  0  0  0  0  0  0  0  0  0  0
    4.4977    3.8738    1.4692 H   0  0  0  0  0  0  0  0  0  0  0  0
    5.8329    3.1584    2.4092 H   0  0  0  0  0  0  0  0  0  0  0  0
    4.7479    2.1094    1.4602 H   0  0  0  0  0  0  0  0  0  0  0  0
   -3.5389   -3.5556    1.8080 C   0  0  0  0  0  0  0  0  0  0  0  0
   -4.8624   -3.1077    2.0787 C   0  0  0  0  0  0  0  0  0  0  0  0
   -5.9284   -2.7371    2.2789 N   0  0  0  0  0  0  0  0  0  0  0  0
   -2.9831   -3.6197    2.7437 H   0  0  0  0  0  0  0  0  0  0  0  0
   -3.5623   -4.5301    1.3263 H   0  0  0  0  0  0  0  0  0  0  0  0
   -3.0505   -2.8351    1.1481 H   0  0  0  0  0  0  0  0  0  0  0  0
   -2.4133    5.9820    0.5933 C   0  0  0  0  0  0  0  0  0  0  0  0
   -1.3561    6.8898    0.2784 C   0  0  0  0  0  0  0  0  0  0  0  0
   -0.5018    7.6146    0.0441 N   0  0  0  0  0  0  0  0  0  0  0  0
   -2.1396    5.4329    1.4942 H   0  0  0  0  0  0  0  0  0  0  0  0
   -3.3337    6.5376    0.7667 H   0  0  0  0  0  0  0  0  0  0  0  0
   -2.5575    5.2799   -0.2291 H   0  0  0  0  0  0  0  0  0  0  0  0
    4.3027   -2.0356   -0.3915 C   0  0  0  0  0  0  0  0  0  0  0  0
    4.1210   -0.6552   -0.1092 C   0  0  0  0  0  0  0  0  0  0  0  0
    3.9831    0.4609    0.1172 N   0  0  0  0  0  0  0  0  0  0  0  0
    3.9663   -2.6222    0.4686 H   0  0  0  0  0  0  0  0  0  0  0  0
    3.6989   -2.3069   -1.2564 H   0  0  0  0  0  0  0  0  0  0  0  0
    5.3538   -2.2366   -0.5936 H   0  0  0  0  0  0  0  0  0  0  0  0
   -6.9863    0.2148    2.4155 C   0  0  0  0  0  0  0  0  0  0  0  0
   -6.5538    0.9444    1.2713 C   0  0  0  0  0  0  0  0  0  0  0  0
   -6.2061    1.5334    0.3514 N   0  0  0  0  0  0  0  0  0  0  0  0
   -6.4702    0.5884    3.3003 H   0  0  0  0  0  0  0  0  0  0  0  0
   -8.0622    0.3268    2.5398 H   0  0  0  0  0  0  0  0  0  0  0  0
   -6.7401   -0.8433    2.2901 H   0  0  0  0  0  0  0  0  0  0  0  0
    2.3178    6.9517   -1.2225 C   0  0  0  0  0  0  0  0  0  0  0  0
    2.6195    6.0972   -0.1308 C   0  0  0  0  0  0  0  0  0  0  0  0
    2.8285    5.3952    0.7536 N   0  0  0  0  0  0  0  0  0  0  0  0
    2.0270    6.3417   -2.0807 H   0  0  0  0  0  0  0  0  0  0  0  0
    1.4852    7.5985   -0.9425 H   0  0  0  0  0  0  0  0  0  0  0  0
    3.1944    7.5407   -1.4819 H   0  0  0  0  0  0  0  0  0  0  0  0
    3.7039   -5.5698   -1.2383 C   0  0  0  0  0  0  0  0  0  0  0  0
    3.5197   -5.2150   -2.6118 C   0  0  0  0  0  0  0  0  0  0  0  0
    3.3818   -4.9415   -3.7146 N   0  0  0  0  0  0  0  0  0  0  0  0
    4.7037   -5.2891   -0.9113 H   0  0  0  0  0  0  0  0  0  0  0  0
    2.9660   -5.0508   -0.6288 H   0  0  0  0  0  0  0  0  0  0  0  0
    3.5716   -6.6444   -1.1208 H   0  0  0  0  0  0  0  0  0  0  0  0
   -5.2698    2.7560   -2.5026 C   0  0  0  0  0  0  0  0  0  0  0  0
   -4.0297    3.2486   -2.0008 C   0  0  0  0  0  0  0  0  0  0  0  0
   -3.0346    3.6416   -1.5908 N   0  0  0  0  0  0  0  0  0  0  0  0
   -5.8237    2.3060   -1.6770 H   0  0  0  0  0  0  0  0  0  0  0  0
   -5.8482    3.5765   -2.9251 H   0  0  0  0  0  0  0  0  0  0  0  0
   -5.0795    2.0087   -3.2734 H   0  0  0  0  0  0  0  0  0  0  0  0
    5.6149    2.6059   -2.0761 C   0  0  0  0  0  0  0  0  0  0  0  0
    5.0499    3.9190   -2.1094 C   0  0  0  0  0  0  0  0  0  0  0  0
    4.5898    4.9668   -2.1362 N   0  0  0  0  0  0  0  0  0  0  0  0
    5.5806    2.2164   -1.0598 H   0  0  0  0  0  0  0  0  0  0  0  0
    5.0328    1.9456   -2.7205 H   0  0  0  0  0  0  0  0  0  0  0  0
    6.6468    2.6396   -2.4216 H   0  0  0  0  0  0  0  0  0  0  0  0
    0.3206   -4.5931   -4.7684 C   0  0  0  0  0  0  0  0  0  0  0  0
   -0.3523   -3.4759   -5.3336 C   0  0  0  0  0  0  0  0  0  0  0  0
   -0.9080   -2.5822   -5.7900 N   0  0  0  0  0  0  0  0  0  0  0  0
   -0.1316   -4.8267   -3.8060 H   0  0  0  0  0  0  0  0  0  0  0  0
    0.2382   -5.4506   -5.4345 H   0  0  0  0  0  0  0  0  0  0  0  0
    1.3743   -4.3621   -4.6013 H   0  0  0  0  0  0  0  0  0  0  0  0
   -1.9804    3.4950   -4.9839 C   0  0  0  0  0  0  0  0  0  0  0  0
   -1.1866    2.6552   -4.1496 C   0  0  0  0  0  0  0  0  0  0  0  0
   -0.5592    1.9744   -3.4760 N   0  0  0  0  0  0  0  0  0  0  0  0
   -2.2214    4.4075   -4.4409 H   0  0  0  0  0  0  0  0  0  0  0  0
   -1.4183    3.7396   -5.8839 H   0  0  0  0  0  0  0  0  0  0  0  0
   -2.8956    2.9644   -5.2487 H   0  0  0  0  0  0  0  0  0  0  0  0
    1.3814   -0.5420   -4.1268 C   0  0  0  0  0  0  0  0  0  0  0  0
    2.5782    0.1678   -3.8308 C   0  0  0  0  0  0  0  0  0  0  0  0
    3.5309    0.7574   -3.5896 N   0  0  0  0  0  0  0  0  0  0  0  0
    1.2839   -1.3902   -3.4542 H   0  0  0  0  0  0  0  0  0  0  0  0
    0.5312    0.1264   -3.9849 H   0  0  0  0  0  0  0  0  0  0  0  0
    1.4046   -0.8922   -5.1570 H   0  0  0  0  0  0  0  0  0  0  0  0
   -4.1156   -1.5009   -5.5091 C   0  0  0  0  0  0  0  0  0  0  0  0
   -4.1388   -0.0784   -5.3979 C   0  0  0  0  0  0  0  0  0  0  0  0
   -4.1583    1.0649   -5.3259 N   0  0  0  0  0  0  0  0  0  0  0  0
   -3.0859   -1.8422   -5.6259 H   0  0  0  0  0  0  0  0  0  0  0  0
   -4.5285   -1.9371   -4.6004 H   0  0  0  0  0  0  0  0  0  0  0  0
   -4.7059   -1.8121   -6.3702 H   0  0  0  0  0  0  0  0  0  0  0  0
    2.6264    3.6541   -5.2388 C   0  0  0  0  0  0  0  0  0  0  0  0
    1.8465    4.4161   -4.3186 C   0  0  0  0  0  0  0  0  0  0  0  0
    1.2126    5.0165   -3.5773 N   0  0  0  0  0  0  0  0  0  0  0  0
    1.9632    3.1512   -5.9434 H   0  0  0  0  0  0  0  0  0  0  0  0
    3.3086    4.3115   -5.7746 H   0  0  0  0  0  0  0  0  0  0  0  0
    3.1949    2.9028   -4.6912 H   0  0  0  0  0  0  0  0  0  0  0  0
   -1.2100    0.1033   -7.4971 C   0  0  0  0  0  0  0  0  0  0  0  0
   -0.2674    1.1230   -7.1656 C   0  0  0  0  0  0  0  0  0  0  0  0
    0.4824    1.9471   -6.9031 N   0  0  0  0  0  0  0  0  0  0  0  0
   -1.0095   -0.7888   -6.9006 H   0  0  0  0  0  0  0  0  0  0  0  0
   -2.2159    0.4627   -7.2821 H   0  0  0  0  0  0  0  0  0  0  0  0
   -1.1269   -0.1425   -8.5550 H   0  0  0  0  0  0  0  0  0  0  0  0
  1  2  1  0  0  0  0
  1  3  4  0  0  0  0
  3  4  1  0  0  0  0
  3  5  4  0  0  0  0
  1  6  4  0  0  0  0
  6  7  1  0  0  0  0
  5  8  4  0  0  0  0
  6  8  4  0  0  0  0
  8  9  1  0  0  0  0
 10 11  1  0  0  0  0
 10 12  4  0  0  0  0
 12 13  1  0  0  0  0
 12 14  4  0  0  0  0
 14 15  1  0  0  0  0
 10 16  4  0  0  0  0
 16 17  1  0  0  0  0
 14 18  4  0  0  0  0
 16 18  4  0  0  0  0
 18 19  1  0  0  0  0
 10 20  1  0  0  0  0
 12 20  1  0  0  0  0
 16 20  1  0  0  0  0
 18 20  1  0  0  0  0
  5 21  1  0  0  0  0
 21 22  1  0  0  0  0
 21 23  1  0  0  0  0
 21 24  1  0  0  0  0
 24 25  1  0  0  0  0
 25 26  1  0  0  0  0
 25 27  1  0  0  0  0
 25 28  1  0  0  0  0
 24 29  1  0  0  0  0
 29 30  1  0  0  0  0
 29 31  1  0  0  0  0
 29 32  1  0  0  0  0
 24 33  1  0  0  0  0
 33 34  1  0  0  0  0
 33 35  1  0  0  0  0
 33 36  1  0  0  0  0
 37 38  1  0  0  0  0
 37 39  1  0  0  0  0
 37 40  1  0  0  0  0
 37 41  1  0  0  0  0
 37 42  1  0  0  0  0
 37 43  1  0  0  0  0
 44 45  1  0  0  0  0
 45 46  3  0  0  0  0
 44 47  1  0  0  0  0
 44 48  1  0  0  0  0
 44 49  1  0  0  0  0
 50 51  1  0  0  0  0
 51 52  3  0  0  0  0
 50 53  1  0  0  0  0
 50 54  1  0  0  0  0
 50 55  1  0  0  0  0
 56 57  1  0  0  0  0
 57 58  3  0  0  0  0
 56 59  1  0  0  0  0
 56 60  1  0  0  0  0
 56 61  1  0  0  0  0
 62 63  1  0  0  0  0
 63 64  3  0  0  0  0
 62 65  1  0  0  0  0
 62 66  1  0  0  0  0
 62 67  1  0  0  0  0
 68 69  1  0  0  0  0
 69 70  3  0  0  0  0
 68 71  1  0  0  0  0
 68 72  1  0  0  0  0
 68 73  1  0  0  0  0
 74 75  1  0  0  0  0
 75 76  3  0  0  0  0
 74 77  1  0  0  0  0
 74 78  1  0  0  0  0
 74 79  1  0  0  0  0
 80 81  1  0  0  0  0
 81 82  3  0  0  0  0
 80 83  1  0  0  0  0
 80 84  1  0  0  0  0
 80 85  1  0  0  0  0
 86 87  1  0  0  0  0
 87 88  3  0  0  0  0
 86 89  1  0  0  0  0
 86 90  1  0  0  0  0
 86 91  1  0  0  0  0
 92 93  1  0  0  0  0
 93 94  3  0  0  0  0
 92 95  1  0  0  0  0
 92 96  1  0  0  0  0
 92 97  1  0  0  0  0
 98 99  1  0  0  0  0
 99100  3  0  0  0  0
 98101  1  0  0  0  0
 98102  1  0  0  0  0
 98103  1  0  0  0  0
104105  1  0  0  0  0
105106  3  0  0  0  0
104107  1  0  0  0  0
104108  1  0  0  0  0
104109  1  0  0  0  0
110111  1  0  0  0  0
111112  3  0  0  0  0
110113  1  0  0  0  0
110114  1  0  0  0  0
110115  1  0  0  0  0
116117  1  0  0  0  0
117118  3  0  0  0  0
116119  1  0  0  0  0
116120  1  0  0  0  0
116121  1  0  0  0  0
122123  1  0  0  0  0
123124  3  0  0  0  0
122125  1  0  0  0  0
122126  1  0  0  0  0
122127  1  0  0  0  0
128129  1  0  0  0  0
129130  3  0  0  0  0
128131  1  0  0  0  0
128132  1  0  0  0  0
128133  1  0  0  0  0
134135  1  0  0  0  0
135136  3  0  0  0  0
134137  1  0  0  0  0
134138  1  0  0  0  0
134139  1  0  0  0  0
140141  1  0  0  0  0
141142  3  0  0  0  0
140143  1  0  0  0  0
140144  1  0  0  0  0
140145  1  0  0  0  0
146147  1  0  0  0  0
147148  3  0  0  0  0
146149  1  0  0  0  0
146150  1  0  0  0  0
146151  1  0  0  0  0
152153  1  0  0  0  0
153154  3  0  0  0  0
152155  1  0  0  0  0
152156  1  0  0  0  0
152157  1  0  0  0  0
158159  1  0  0  0  0
159160  3  0  0  0  0
158161  1  0  0  0  0
158162  1  0  0  0  0
158163  1  0  0  0  0
M  END
