 xtb: 6.6.0 (conda-forge)
          03032511363D

166147  0     0  0            999 V2000
   -3.6255   -0.2699    2.7969 C   0  0  0  0  0  0  0  0  0  0  0  0
   -4.6156    0.0494    1.8851 C   0  0  0  0  0  0  0  0  0  0  0  0
   -4.2565    0.4343    0.6053 C   0  0  0  0  0  0  0  0  0  0  0  0
   -2.9220    0.4656    0.2425 C   0  0  0  0  0  0  0  0  0  0  0  0
   -1.9087    0.1338    1.1451 C   0  0  0  0  0  0  0  0  0  0  0  0
   -2.2897   -0.2163    2.4395 C   0  0  0  0  0  0  0  0  0  0  0  0
   -0.5693    0.1646    0.7381 N   0  0  0  0  0  0  0  0  0  0  0  0
   -0.1510    1.2613   -0.0253 C   0  0  0  0  0  0  0  0  0  0  0  0
    1.0660    1.9058    0.1930 C   0  0  0  0  0  0  0  0  0  0  0  0
    1.4523    2.9745   -0.5966 C   0  0  0  0  0  0  0  0  0  0  0  0
    0.6300    3.4431   -1.6065 C   0  0  0  0  0  0  0  0  0  0  0  0
   -0.5887    2.8259   -1.8281 C   0  0  0  0  0  0  0  0  0  0  0  0
   -0.9633    1.7410   -1.0560 C   0  0  0  0  0  0  0  0  0  0  0  0
   -3.8866   -0.5589    3.8032 H   0  0  0  0  0  0  0  0  0  0  0  0
   -5.6567    0.0065    2.1652 H   0  0  0  0  0  0  0  0  0  0  0  0
   -5.0050    0.6960   -0.1273 H   0  0  0  0  0  0  0  0  0  0  0  0
   -1.5416   -0.4417    3.1817 H   0  0  0  0  0  0  0  0  0  0  0  0
    1.7289    1.5575    0.9672 H   0  0  0  0  0  0  0  0  0  0  0  0
    2.4071    3.4434   -0.4132 H   0  0  0  0  0  0  0  0  0  0  0  0
    0.9309    4.2775   -2.2205 H   0  0  0  0  0  0  0  0  0  0  0  0
   -1.2519    3.1658   -2.6091 H   0  0  0  0  0  0  0  0  0  0  0  0
   -2.4938    0.9180   -1.4197 S   0  0  0  0  0  0  0  0  0  0  0  0
    0.3981   -0.5810    1.5177 C   0  0  0  0  0  0  0  0  0  0  0  0
    0.7967    0.0010    2.3587 H   0  0  0  0  0  0  0  0  0  0  0  0
   -0.1233   -1.4528    1.9152 H   0  0  0  0  0  0  0  0  0  0  0  0
    1.5957   -1.0571    0.6785 C   0  0  0  0  0  0  0  0  0  0  0  0
    1.6266   -2.1555    0.6399 H   0  0  0  0  0  0  0  0  0  0  0  0
    1.5199   -0.6865   -0.3553 H   0  0  0  0  0  0  0  0  0  0  0  0
    2.7761   -0.5715    1.2779 O   0  0  0  0  0  0  0  0  0  0  0  0
    3.9465   -0.9503    0.5907 C   0  0  0  0  0  0  0  0  0  0  0  0
    4.0197   -2.0470    0.5529 H   0  0  0  0  0  0  0  0  0  0  0  0
    3.9270   -0.5612   -0.4375 H   0  0  0  0  0  0  0  0  0  0  0  0
    5.1574   -0.3821    1.3201 C   0  0  0  0  0  0  0  0  0  0  0  0
    5.0188   -0.5190    2.4018 H   0  0  0  0  0  0  0  0  0  0  0  0
    6.0611   -0.9280    1.0099 H   0  0  0  0  0  0  0  0  0  0  0  0
    5.2901    0.9870    1.0111 O   0  0  0  0  0  0  0  0  0  0  0  0
    6.3465    1.6052    1.7067 C   0  0  0  0  0  0  0  0  0  0  0  0
    7.3083    1.1390    1.4587 H   0  0  0  0  0  0  0  0  0  0  0  0
    6.3523    2.6480    1.3963 H   0  0  0  0  0  0  0  0  0  0  0  0
    6.1957    1.5444    2.7913 H   0  0  0  0  0  0  0  0  0  0  0  0
   -1.3685   -2.5238   -1.4235 C   0  0  0  0  0  0  0  0  0  0  0  0
   -1.5889   -3.2382   -0.2038 C   0  0  0  0  0  0  0  0  0  0  0  0
   -1.7695   -3.8087    0.7724 N   0  0  0  0  0  0  0  0  0  0  0  0
   -0.6929   -1.6910   -1.2341 H   0  0  0  0  0  0  0  0  0  0  0  0
   -0.9288   -3.1889   -2.1652 H   0  0  0  0  0  0  0  0  0  0  0  0
   -2.3159   -2.1357   -1.7954 H   0  0  0  0  0  0  0  0  0  0  0  0
    2.9748    0.0820    6.7793 C   0  0  0  0  0  0  0  0  0  0  0  0
    1.6379   -0.3394    7.0735 C   0  0  0  0  0  0  0  0  0  0  0  0
    0.5694   -0.6772    7.3084 N   0  0  0  0  0  0  0  0  0  0  0  0
    3.5653   -0.7785    6.4666 H   0  0  0  0  0  0  0  0  0  0  0  0
    2.9536    0.8197    5.9783 H   0  0  0  0  0  0  0  0  0  0  0  0
    3.4213    0.5263    7.6681 H   0  0  0  0  0  0  0  0  0  0  0  0
   -3.2294   -3.8191    8.1473 C   0  0  0  0  0  0  0  0  0  0  0  0
   -2.8758   -4.9922    7.4057 C   0  0  0  0  0  0  0  0  0  0  0  0
   -2.5998   -5.9305    6.8100 N   0  0  0  0  0  0  0  0  0  0  0  0
   -2.4999   -3.6564    8.9396 H   0  0  0  0  0  0  0  0  0  0  0  0
   -3.2350   -2.9581    7.4805 H   0  0  0  0  0  0  0  0  0  0  0  0
   -4.2198   -3.9482    8.5819 H   0  0  0  0  0  0  0  0  0  0  0  0
    1.5648    5.3144    4.3197 C   0  0  0  0  0  0  0  0  0  0  0  0
    0.2966    4.6490    4.2982 C   0  0  0  0  0  0  0  0  0  0  0  0
   -0.7183    4.1188    4.2840 N   0  0  0  0  0  0  0  0  0  0  0  0
    1.8602    5.4996    5.3517 H   0  0  0  0  0  0  0  0  0  0  0  0
    2.3140    4.6902    3.8349 H   0  0  0  0  0  0  0  0  0  0  0  0
    1.4860    6.2612    3.7871 H   0  0  0  0  0  0  0  0  0  0  0  0
    1.8723   -5.7688    3.8318 C   0  0  0  0  0  0  0  0  0  0  0  0
    3.1467   -5.1574    4.0603 C   0  0  0  0  0  0  0  0  0  0  0  0
    4.1660   -4.6677    4.2416 N   0  0  0  0  0  0  0  0  0  0  0  0
    1.8224   -6.7181    4.3635 H   0  0  0  0  0  0  0  0  0  0  0  0
    1.0824   -5.1103    4.1910 H   0  0  0  0  0  0  0  0  0  0  0  0
    1.7404   -5.9450    2.7650 H   0  0  0  0  0  0  0  0  0  0  0  0
   -6.6955    1.5653    7.3420 C   0  0  0  0  0  0  0  0  0  0  0  0
   -6.9847    0.1942    7.0427 C   0  0  0  0  0  0  0  0  0  0  0  0
   -7.2146   -0.9016    6.8032 N   0  0  0  0  0  0  0  0  0  0  0  0
   -6.6148    1.6913    8.4209 H   0  0  0  0  0  0  0  0  0  0  0  0
   -5.7548    1.8490    6.8715 H   0  0  0  0  0  0  0  0  0  0  0  0
   -7.4972    2.1965    6.9609 H   0  0  0  0  0  0  0  0  0  0  0  0
    7.7470    5.6870    5.4649 C   0  0  0  0  0  0  0  0  0  0  0  0
    6.7747    4.8336    6.0796 C   0  0  0  0  0  0  0  0  0  0  0  0
    5.9982    4.1501    6.5705 N   0  0  0  0  0  0  0  0  0  0  0  0
    7.3470    6.6974    5.3902 H   0  0  0  0  0  0  0  0  0  0  0  0
    8.6541    5.6971    6.0677 H   0  0  0  0  0  0  0  0  0  0  0  0
    7.9754    5.3154    4.4669 H   0  0  0  0  0  0  0  0  0  0  0  0
   -2.5721   -8.6804    2.0590 C   0  0  0  0  0  0  0  0  0  0  0  0
   -1.3332   -9.3747    1.8747 C   0  0  0  0  0  0  0  0  0  0  0  0
   -0.3410   -9.9276    1.7299 N   0  0  0  0  0  0  0  0  0  0  0  0
   -3.3263   -9.3722    2.4316 H   0  0  0  0  0  0  0  0  0  0  0  0
   -2.4318   -7.8745    2.7778 H   0  0  0  0  0  0  0  0  0  0  0  0
   -2.8995   -8.2638    1.1073 H   0  0  0  0  0  0  0  0  0  0  0  0
   -3.4177    6.5968    0.9056 C   0  0  0  0  0  0  0  0  0  0  0  0
   -2.1581    7.1910    0.5727 C   0  0  0  0  0  0  0  0  0  0  0  0
   -1.1537    7.6735    0.3085 N   0  0  0  0  0  0  0  0  0  0  0  0
   -3.6248    6.7556    1.9631 H   0  0  0  0  0  0  0  0  0  0  0  0
   -4.2041    7.0535    0.3062 H   0  0  0  0  0  0  0  0  0  0  0  0
   -3.3804    5.5276    0.7016 H   0  0  0  0  0  0  0  0  0  0  0  0
    7.5017   -5.3843   -0.3600 C   0  0  0  0  0  0  0  0  0  0  0  0
    7.4423   -6.7398   -0.8210 C   0  0  0  0  0  0  0  0  0  0  0  0
    7.3929   -7.8214   -1.1938 N   0  0  0  0  0  0  0  0  0  0  0  0
    6.9821   -5.3032    0.5941 H   0  0  0  0  0  0  0  0  0  0  0  0
    8.5426   -5.0865   -0.2367 H   0  0  0  0  0  0  0  0  0  0  0  0
    7.0227   -4.7332   -1.0910 H   0  0  0  0  0  0  0  0  0  0  0  0
   -6.4036   -4.9055    3.4945 C   0  0  0  0  0  0  0  0  0  0  0  0
   -6.8096   -5.7650    2.4234 C   0  0  0  0  0  0  0  0  0  0  0  0
   -7.1337   -6.4522    1.5665 N   0  0  0  0  0  0  0  0  0  0  0  0
   -5.3644   -4.6131    3.3502 H   0  0  0  0  0  0  0  0  0  0  0  0
   -7.0326   -4.0164    3.5067 H   0  0  0  0  0  0  0  0  0  0  0  0
   -6.5042   -5.4336    4.4417 H   0  0  0  0  0  0  0  0  0  0  0  0
    3.9519    8.3477   -0.5553 C   0  0  0  0  0  0  0  0  0  0  0  0
    4.6910    7.6931    0.4815 C   0  0  0  0  0  0  0  0  0  0  0  0
    5.2813    7.1729    1.3138 N   0  0  0  0  0  0  0  0  0  0  0  0
    3.5211    9.2700   -0.1677 H   0  0  0  0  0  0  0  0  0  0  0  0
    4.6160    8.5759   -1.3879 H   0  0  0  0  0  0  0  0  0  0  0  0
    3.1525    7.6937   -0.8999 H   0  0  0  0  0  0  0  0  0  0  0  0
    2.4616   -8.3539   -2.1480 C   0  0  0  0  0  0  0  0  0  0  0  0
    2.5339   -6.9471   -1.8932 C   0  0  0  0  0  0  0  0  0  0  0  0
    2.5971   -5.8218   -1.6902 N   0  0  0  0  0  0  0  0  0  0  0  0
    2.8888   -8.8964   -1.3055 H   0  0  0  0  0  0  0  0  0  0  0  0
    1.4200   -8.6460   -2.2772 H   0  0  0  0  0  0  0  0  0  0  0  0
    3.0247   -8.5872   -3.0508 H   0  0  0  0  0  0  0  0  0  0  0  0
   -5.9737    2.8732   -4.8492 C   0  0  0  0  0  0  0  0  0  0  0  0
   -5.7579    4.0387   -4.0446 C   0  0  0  0  0  0  0  0  0  0  0  0
   -5.5864    4.9688   -3.3992 N   0  0  0  0  0  0  0  0  0  0  0  0
   -6.3885    2.0779   -4.2313 H   0  0  0  0  0  0  0  0  0  0  0  0
   -6.6682    3.1106   -5.6539 H   0  0  0  0  0  0  0  0  0  0  0  0
   -5.0255    2.5443   -5.2724 H   0  0  0  0  0  0  0  0  0  0  0  0
    7.5750    1.7022   -3.3933 C   0  0  0  0  0  0  0  0  0  0  0  0
    7.9360    0.3459   -3.1062 C   0  0  0  0  0  0  0  0  0  0  0  0
    8.2267   -0.7376   -2.8777 N   0  0  0  0  0  0  0  0  0  0  0  0
    6.5271    1.8588   -3.1405 H   0  0  0  0  0  0  0  0  0  0  0  0
    8.1955    2.3766   -2.8047 H   0  0  0  0  0  0  0  0  0  0  0  0
    7.7251    1.8986   -4.4542 H   0  0  0  0  0  0  0  0  0  0  0  0
   -4.9862   -5.8806   -3.2908 C   0  0  0  0  0  0  0  0  0  0  0  0
   -3.8060   -6.6910   -3.3366 C   0  0  0  0  0  0  0  0  0  0  0  0
   -2.8617   -7.3375   -3.3784 N   0  0  0  0  0  0  0  0  0  0  0  0
   -5.1154   -5.4847   -2.2845 H   0  0  0  0  0  0  0  0  0  0  0  0
   -4.8877   -5.0573   -3.9973 H   0  0  0  0  0  0  0  0  0  0  0  0
   -5.8523   -6.4865   -3.5540 H   0  0  0  0  0  0  0  0  0  0  0  0
   -1.6025    7.4136   -5.2713 C   0  0  0  0  0  0  0  0  0  0  0  0
   -1.5961    6.2051   -6.0395 C   0  0  0  0  0  0  0  0  0  0  0  0
   -1.5918    5.2377   -6.6523 N   0  0  0  0  0  0  0  0  0  0  0  0
   -1.6403    7.1689   -4.2105 H   0  0  0  0  0  0  0  0  0  0  0  0
   -0.6972    7.9823   -5.4802 H   0  0  0  0  0  0  0  0  0  0  0  0
   -2.4770    8.0065   -5.5361 H   0  0  0  0  0  0  0  0  0  0  0  0
    4.3840   -2.8141   -5.6023 C   0  0  0  0  0  0  0  0  0  0  0  0
    4.3587   -1.4814   -6.1180 C   0  0  0  0  0  0  0  0  0  0  0  0
    4.3364   -0.4118   -6.5288 N   0  0  0  0  0  0  0  0  0  0  0  0
    4.4252   -2.7828   -4.5145 H   0  0  0  0  0  0  0  0  0  0  0  0
    3.4828   -3.3434   -5.9143 H   0  0  0  0  0  0  0  0  0  0  0  0
    5.2608   -3.3356   -5.9831 H   0  0  0  0  0  0  0  0  0  0  0  0
   -1.0354    0.0718   -6.9029 C   0  0  0  0  0  0  0  0  0  0  0  0
   -2.0026   -0.9314   -6.5734 C   0  0  0  0  0  0  0  0  0  0  0  0
   -2.7809   -1.7302   -6.3137 N   0  0  0  0  0  0  0  0  0  0  0  0
   -0.7984    0.6540   -6.0135 H   0  0  0  0  0  0  0  0  0  0  0  0
   -0.1293   -0.4048   -7.2748 H   0  0  0  0  0  0  0  0  0  0  0  0
   -1.4411    0.7309   -7.6695 H   0  0  0  0  0  0  0  0  0  0  0  0
    3.3057    4.5168   -7.0012 C   0  0  0  0  0  0  0  0  0  0  0  0
    3.4680    5.5573   -6.0311 C   0  0  0  0  0  0  0  0  0  0  0  0
    3.5975    6.3911   -5.2568 N   0  0  0  0  0  0  0  0  0  0  0  0
    2.6742    3.7319   -6.5877 H   0  0  0  0  0  0  0  0  0  0  0  0
    2.8372    4.9244   -7.8960 H   0  0  0  0  0  0  0  0  0  0  0  0
    4.2790    4.1002   -7.2567 H   0  0  0  0  0  0  0  0  0  0  0  0
   -0.0710   -6.2050   -7.4003 C   0  0  0  0  0  0  0  0  0  0  0  0
    0.9044   -5.2705   -6.9302 C   0  0  0  0  0  0  0  0  0  0  0  0
    1.6898   -4.5247   -6.5585 N   0  0  0  0  0  0  0  0  0  0  0  0
   -0.0013   -7.1240   -6.8198 H   0  0  0  0  0  0  0  0  0  0  0  0
   -1.0665   -5.7789   -7.2836 H   0  0  0  0  0  0  0  0  0  0  0  0
    0.1126   -6.4218   -8.4520 H   0  0  0  0  0  0  0  0  0  0  0  0
  1  2  4  0  0  0  0
  2  3  4  0  0  0  0
  3  4  4  0  0  0  0
  4  5  4  0  0  0  0
  1  6  4  0  0  0  0
  5  6  4  0  0  0  0
  5  7  1  0  0  0  0
  7  8  1  0  0  0  0
  8  9  4  0  0  0  0
  9 10  4  0  0  0  0
 10 11  4  0  0  0  0
 11 12  4  0  0  0  0
  8 13  4  0  0  0  0
 12 13  4  0  0  0  0
  1 14  1  0  0  0  0
  2 15  1  0  0  0  0
  3 16  1  0  0  0  0
  6 17  1  0  0  0  0
  9 18  1  0  0  0  0
 10 19  1  0  0  0  0
 11 20  1  0  0  0  0
 12 21  1  0  0  0  0
  4 22  1  0  0  0  0
 13 22  1  0  0  0  0
  7 23  1  0  0  0  0
 23 24  1  0  0  0  0
 23 25  1  0  0  0  0
 23 26  1  0  0  0  0
 26 27  1  0  0  0  0
 26 28  1  0  0  0  0
 26 29  1  0  0  0  0
 29 30  1  0  0  0  0
 30 31  1  0  0  0  0
 30 32  1  0  0  0  0
 30 33  1  0  0  0  0
 33 34  1  0  0  0  0
 33 35  1  0  0  0  0
 33 36  1  0  0  0  0
 36 37  1  0  0  0  0
 37 38  1  0  0  0  0
 37 39  1  0  0  0  0
 37 40  1  0  0  0  0
 41 42  1  0  0  0  0
 42 43  3  0  0  0  0
 41 44  1  0  0  0  0
 41 45  1  0  0  0  0
 41 46  1  0  0  0  0
 47 48  1  0  0  0  0
 48 49  3  0  0  0  0
 47 50  1  0  0  0  0
 47 51  1  0  0  0  0
 47 52  1  0  0  0  0
 53 54  1  0  0  0  0
 54 55  3  0  0  0  0
 53 56  1  0  0  0  0
 53 57  1  0  0  0  0
 53 58  1  0  0  0  0
 59 60  1  0  0  0  0
 60 61  3  0  0  0  0
 59 62  1  0  0  0  0
 59 63  1  0  0  0  0
 59 64  1  0  0  0  0
 65 66  1  0  0  0  0
 66 67  3  0  0  0  0
 65 68  1  0  0  0  0
 65 69  1  0  0  0  0
 65 70  1  0  0  0  0
 71 72  1  0  0  0  0
 72 73  3  0  0  0  0
 71 74  1  0  0  0  0
 71 75  1  0  0  0  0
 71 76  1  0  0  0  0
 77 78  1  0  0  0  0
 78 79  3  0  0  0  0
 77 80  1  0  0  0  0
 77 81  1  0  0  0  0
 77 82  1  0  0  0  0
 83 84  1  0  0  0  0
 84 85  3  0  0  0  0
 83 86  1  0  0  0  0
 83 87  1  0  0  0  0
 83 88  1  0  0  0  0
 89 90  1  0  0  0  0
 90 91  3  0  0  0  0
 89 92  1  0  0  0  0
 89 93  1  0  0  0  0
 89 94  1  0  0  0  0
 95 96  1  0  0  0  0
 96 97  3  0  0  0  0
 95 98  1  0  0  0  0
 95 99  1  0  0  0  0
 95100  1  0  0  0  0
101102  1  0  0  0  0
102103  3  0  0  0  0
101104  1  0  0  0  0
101105  1  0  0  0  0
101106  1  0  0  0  0
107108  1  0  0  0  0
108109  3  0  0  0  0
107110  1  0  0  0  0
107111  1  0  0  0  0
107112  1  0  0  0  0
113114  1  0  0  0  0
114115  3  0  0  0  0
113116  1  0  0  0  0
113117  1  0  0  0  0
113118  1  0  0  0  0
119120  1  0  0  0  0
120121  3  0  0  0  0
119122  1  0  0  0  0
119123  1  0  0  0  0
119124  1  0  0  0  0
125126  1  0  0  0  0
126127  3  0  0  0  0
125128  1  0  0  0  0
125129  1  0  0  0  0
125130  1  0  0  0  0
131132  1  0  0  0  0
132133  3  0  0  0  0
131134  1  0  0  0  0
131135  1  0  0  0  0
131136  1  0  0  0  0
137138  1  0  0  0  0
138139  3  0  0  0  0
137140  1  0  0  0  0
137141  1  0  0  0  0
137142  1  0  0  0  0
143144  1  0  0  0  0
144145  3  0  0  0  0
143146  1  0  0  0  0
143147  1  0  0  0  0
143148  1  0  0  0  0
149150  1  0  0  0  0
150151  3  0  0  0  0
149152  1  0  0  0  0
149153  1  0  0  0  0
149154  1  0  0  0  0
155156  1  0  0  0  0
156157  3  0  0  0  0
155158  1  0  0  0  0
155159  1  0  0  0  0
155160  1  0  0  0  0
161162  1  0  0  0  0
162163  3  0  0  0  0
161164  1  0  0  0  0
161165  1  0  0  0  0
161166  1  0  0  0  0
M  END
