261
Solvated system with counter ions
C  -1.710140  1.024150  -0.625310
H  -1.804175  2.085639  -0.468898
C  -1.780179  0.030163  0.380139
H  -1.937619  0.205051  1.430656
C  -1.721475  -1.235418  -0.250732
H  -1.826399  -2.189995  0.236807
C  -1.609233  0.373046  -1.878259
H  -1.613740  0.852515  -2.842557
C  -1.615015  -1.023450  -1.646136
H  -1.622980  -1.789714  -2.402794
C  2.017896  0.447369  -1.588735
H  2.155275  0.958779  -2.526841
C  1.918168  1.058536  -0.315298
H  1.961746  2.117113  -0.120062
C  1.859593  0.032637  0.658890
H  1.853247  0.170052  1.727167
C  2.020372  -0.955910  -1.401073
H  2.159016  -1.694185  -2.172670
C  1.921357  -1.212579  -0.012078
H  1.973575  -2.179965  0.459252
Fe  0.130540  -0.147328  -0.665979
C  2.589697  0.439481  7.180701
C  2.239149  -0.686823  7.992847
N  1.958988  -1.587608  8.642065
H  2.613586  1.337008  7.797427
H  3.573214  0.276291  6.742361
H  1.852681  0.560956  6.388259
C  -1.614937  -4.382965  6.066225
C  -1.016081  -3.476385  5.133134
N  -0.540964  -2.752111  4.384741
H  -1.183443  -4.227888  7.054164
H  -2.688537  -4.202905  6.107775
H  -1.431224  -5.407685  5.746267
C  0.056537  6.186912  4.329478
C  -0.022385  4.826175  3.894111
N  -0.086798  3.736864  3.546850
H  0.807070  6.276184  5.114038
H  0.335409  6.819948  3.488139
H  -0.911948  6.504326  4.713814
C  3.498097  -6.036033  5.686874
C  3.792014  -5.284768  4.503256
N  4.026855  -4.685967  3.556210
H  4.402338  -6.533237  6.036201
H  3.132684  -5.363405  6.461846
H  2.737153  -6.782800  5.463460
C  -3.944256  1.176914  5.829469
C  -4.654880  0.118852  5.175784
N  -5.218346  -0.725970  4.646928
H  -2.885808  0.924263  5.880808
H  -4.070102  2.100819  5.266252
H  -4.335763  1.309717  6.837428
C  5.457727  3.960182  3.578381
C  5.161244  4.376745  4.916158
N  4.920395  4.705912  5.986268
H  4.528100  3.784031  3.039562
H  6.027141  4.739423  3.073782
H  6.045667  3.043818  3.604151
C  -2.695411  -10.198032  2.457147
C  -1.535159  -9.668881  3.109705
N  -0.606909  -9.243226  3.627447
H  -3.505474  -10.294656  3.178955
H  -2.999737  -9.524216  1.657122
H  -2.462809  -11.177335  2.040566
C  -4.426747  10.813159  0.724006
C  -3.947328  9.593096  1.302150
N  -3.560709  8.618600  1.762051
H  -5.218786  11.224565  1.348489
H  -3.608482  11.529245  0.657621
H  -4.817236  10.613115  -0.272989
C  6.933997  -2.760876  -0.055699
C  7.952013  -2.692524  -1.060596
N  8.764113  -2.635914  -1.866145
H  6.536008  -1.763427  0.123880
H  6.135391  -3.420790  -0.391247
H  7.361525  -3.151792  0.866560
C  -7.454161  -3.463121  0.928448
C  -7.774489  -3.391690  -0.465627
N  -8.029904  -3.334513  -1.580459
H  -6.394361  -3.684147  1.047413
H  -7.680833  -2.509461  1.402992
H  -8.044830  -4.249897  1.395968
C  4.832660  6.094882  -1.771114
C  3.961980  6.598736  -0.752191
N  3.264835  6.995812  0.064946
H  5.833913  6.498977  -1.627544
H  4.869382  5.008348  -1.712723
H  4.457903  6.390515  -2.750114
C  1.884933  -7.739794  -0.517868
C  2.376552  -6.735271  -1.412121
N  2.764910  -5.929137  -2.126227
H  2.294442  -7.572367  0.477427
H  0.797967  -7.685065  -0.475936
H  2.186753  -8.724192  -0.873391
C  -8.316516  6.898414  -4.370179
C  -7.080342  7.512444  -3.985957
N  -6.091822  8.000274  -3.676923
H  -9.042107  7.007250  -3.564995
H  -8.697243  7.381110  -5.269451
H  -8.149391  5.840417  -4.568096
C  9.611604  2.216511  -2.446240
C  8.804308  2.340277  -1.270303
N  8.155796  2.440861  -0.331994
H  10.416660  1.506525  -2.261057
H  8.996300  1.858024  -3.270464
H  10.034139  3.187229  -2.702652
C  -4.352868  -5.796492  -3.775223
C  -3.822304  -6.028785  -2.466255
N  -3.396147  -6.210251  -1.418960
H  -5.320727  -6.287677  -3.867326
H  -4.477866  -4.726121  -3.932146
H  -3.669804  -6.195582  -4.523948
C  -1.124489  7.143149  -2.863267
C  -0.443175  5.913585  -3.133778
N  0.098958  4.927966  -3.347656
H  -1.927026  6.963463  -2.149112
H  -0.423108  7.863390  -2.443946
H  -1.545456  7.539031  -3.786577
C  5.485007  -2.733509  -5.745425
C  5.245326  -2.451145  -7.128710
N  5.051615  -2.225731  -8.234749
H  5.547249  -1.798860  -5.190071
H  4.670356  -3.340140  -5.352600
H  6.423457  -3.277262  -5.644916
C  -7.467341  -3.577405  -9.134393
C  -6.123475  -3.633382  -8.640949
N  -5.050398  -3.676976  -8.244560
H  -8.155835  -3.878503  -8.345680
H  -7.697213  -2.559703  -9.447625
H  -7.571069  -4.250838  -9.984356
C  3.283899  2.789942  -7.306798
C  4.328453  2.749050  -6.328031
N  5.158083  2.716509  -5.539570
H  2.322491  2.893931  -6.805461
H  3.442319  3.638248  -7.971536
H  3.294763  1.868089  -7.886685
C  -0.163400  -2.378026  -8.512067
C  0.164301  -1.771816  -7.257133
N  0.421712  -1.288039  -6.251901
H  -0.512968  -3.395672  -8.343158
H  -0.950137  -1.803394  -8.999337
H  0.719878  -2.399555  -9.149150
C  2.823765  -0.077694  9.005246
C  4.285269  -0.101376  9.030628
N  5.445190  -0.120170  9.050773
H  2.417208  -0.083256  10.020925
H  2.458296  0.820000  8.497801
H  2.429966  -0.950937  8.476765
C  -4.183065  -3.636060  8.005246
C  -2.721562  -3.659742  8.030628
N  -1.561641  -3.678536  8.050773
H  -4.589622  -3.641622  9.020925
H  -4.548534  -2.738366  7.497801
H  -4.576864  -4.509303  7.476765
C  0.279533  6.511358  7.005246
C  1.741037  6.487676  7.030628
N  2.900957  6.468882  7.050773
H  -0.127024  6.505796  8.020925
H  -0.085936  7.409052  6.497801
H  -0.114266  5.638115  6.476765
C  4.325001  -6.108538  6.005246
C  5.786505  -6.132219  6.030628
N  6.946426  -6.151014  6.050773
H  3.918444  -6.114099  7.020925
H  3.959532  -5.210843  5.497801
H  3.931202  -6.981781  5.476765
C  -8.522713  1.377012  5.005246
C  -7.061209  1.353330  5.030628
N  -5.901288  1.334536  5.050773
H  -8.929270  1.371450  6.020925
H  -8.888182  2.274706  4.497801
H  -8.916512  0.503769  4.476765
C  7.236242  4.715440  4.005246
C  8.697746  4.691759  4.030628
N  9.857666  4.672965  4.050773
H  6.829685  4.709879  5.020925
H  6.870773  5.613135  3.497801
H  6.842443  3.842198  3.476765
C  -2.730576  -9.124027  3.005246
C  -1.269073  -9.147709  3.030628
N  -0.109152  -9.166503  3.050773
H  -3.137133  -9.129589  4.020925
H  -3.096045  -8.226333  2.497801
H  -3.124375  -9.997270  2.476765
C  -4.761447  8.514988  2.005246
C  -3.299943  8.491307  2.030628
N  -2.140023  8.472512  2.050773
H  -5.168004  8.509427  3.020925
H  -5.126916  9.412683  1.497801
H  -5.155246  7.641745  1.476765
C  8.988204  -3.469269  1.005246
C  10.449708  -3.492951  1.030628
N  11.609629  -3.511745  1.050773
H  8.581647  -3.474831  2.020925
H  8.622735  -2.571575  0.497801
H  8.594405  -4.342512  0.476765
C  -9.530628  -3.888486  0.005246
C  -8.069124  -3.912167  0.030628
N  -6.909203  -3.930962  0.050773
H  -9.937185  -3.894047  1.020925
H  -9.896097  -2.990791  -0.502199
H  -9.924427  -4.761729  -0.523235
C  3.934425  8.968320  -0.994754
C  5.395929  8.944638  -0.969372
N  6.555849  8.925844  -0.949227
H  3.527868  8.962758  0.020925
H  3.568956  9.866014  -1.502199
H  3.540626  8.095077  -1.523235
C  2.660244  -9.511381  -1.994754
C  4.121748  -9.535063  -1.969372
N  5.281668  -9.553857  -1.949227
H  2.253687  -9.516943  -0.979075
H  2.294775  -8.613687  -2.502199
H  2.266445  -10.384624  -2.523235
C  -8.676105  4.777164  -2.994754
C  -7.214602  4.753482  -2.969372
N  -6.054681  4.734688  -2.949227
H  -9.082662  4.771602  -1.979075
H  -9.041574  5.674858  -3.502199
H  -9.069904  3.903921  -3.523235
C  8.850274  1.933689  -3.994754
C  10.311777  1.910008  -3.969372
N  11.471698  1.891213  -3.949227
H  8.443717  1.928128  -2.979075
H  8.484805  2.831384  -4.502199
H  8.456475  1.060446  -4.523235
C  -5.434804  -7.383225  -4.994754
C  -3.973300  -7.406907  -4.969372
N  -2.813379  -7.425701  -4.949227
H  -5.841361  -7.388787  -3.979075
H  -5.800273  -6.485531  -5.502199
H  -5.828603  -8.256468  -5.523235
C  -1.372010  8.204701  -5.994754
C  0.089494  8.181020  -5.969372
N  1.249415  8.162226  -5.949227
H  -1.778567  8.199140  -4.979075
H  -1.737479  9.102396  -6.502199
H  -1.765809  7.331459  -6.523235
C  5.512096  -4.975067  -6.994754
C  6.973599  -4.998749  -6.969372
N  8.133520  -5.017543  -6.949227
H  5.105539  -4.980629  -5.979075
H  5.146627  -4.077373  -7.502199
H  5.118297  -5.848310  -7.523235
C  -6.907464  -0.350986  -7.994754
C  -5.445960  -0.374667  -7.969372
N  -4.286039  -0.393462  -7.949227
H  -7.314021  -0.356547  -6.979075
H  -7.272933  0.546708  -8.502199
H  -7.301263  -1.224229  -8.523235
C  3.435257  3.638125  -8.994754
C  4.896761  3.614444  -8.969372
N  6.056681  3.595649  -8.949227
H  3.028700  3.632564  -7.979075
H  3.069788  4.535820  -9.502199
H  3.041458  2.764882  -9.523235
C  -0.442967  -3.196860  -9.994754
C  1.018537  -3.220542  -9.969372
N  2.178458  -3.239336  -9.949227
H  -0.849523  -3.202422  -8.979075
H  -0.808435  -2.299166  -10.502199
H  -0.836765  -4.070103  -10.523235
