 xtb: 6.6.0 (conda-forge)
          02062515263D

160142  0     0  0            999 V2000
    3.2605   -3.3270    0.1132 c   0  0  0  0  0  0  0  0  0  0  0  0
    4.4435   -2.6299    0.2745 c   0  0  0  0  0  0  0  0  0  0  0  0
    4.4015   -1.2575    0.4415 c   0  0  0  0  0  0  0  0  0  0  0  0
    3.1861   -0.6003    0.4540 c   0  0  0  0  0  0  0  0  0  0  0  0
    1.9828   -1.2841    0.2708 c   0  0  0  0  0  0  0  0  0  0  0  0
    2.0441   -2.6662    0.0995 c   0  0  0  0  0  0  0  0  0  0  0  0
    0.7749   -0.5848    0.2404 n   0  0  0  0  0  0  0  0  0  0  0  0
    0.7382    0.6410   -0.4307 c   0  0  0  0  0  0  0  0  0  0  0  0
   -0.3297    1.0006   -1.2526 c   0  0  0  0  0  0  0  0  0  0  0  0
   -0.3714    2.2410   -1.8641 c   0  0  0  0  0  0  0  0  0  0  0  0
    0.6663    3.1392   -1.6929 c   0  0  0  0  0  0  0  0  0  0  0  0
    1.7512    2.7883   -0.9084 c   0  0  0  0  0  0  0  0  0  0  0  0
    1.7822    1.5552   -0.2845 c   0  0  0  0  0  0  0  0  0  0  0  0
    3.2812   -4.3989   -0.0179 h   0  0  0  0  0  0  0  0  0  0  0  0
    5.3875   -3.1523    0.2715 h   0  0  0  0  0  0  0  0  0  0  0  0
    5.3057   -0.6840    0.5774 h   0  0  0  0  0  0  0  0  0  0  0  0
    1.1402   -3.2302   -0.0652 h   0  0  0  0  0  0  0  0  0  0  0  0
   -1.1527    0.3186   -1.3919 h   0  0  0  0  0  0  0  0  0  0  0  0
   -1.2291    2.5035   -2.4651 h   0  0  0  0  0  0  0  0  0  0  0  0
    0.6385    4.1123   -2.1581 h   0  0  0  0  0  0  0  0  0  0  0  0
    2.5613    3.4828   -0.7538 h   0  0  0  0  0  0  0  0  0  0  0  0
    3.1608    1.1430    0.7500 s   0  0  0  0  0  0  0  0  0  0  0  0
   -0.4586   -1.2956    0.5054 c   0  0  0  0  0  0  0  0  0  0  0  0
   -0.8863   -1.7617   -0.3903 h   0  0  0  0  0  0  0  0  0  0  0  0
   -0.2223   -2.0894    1.2151 h   0  0  0  0  0  0  0  0  0  0  0  0
   -1.5200   -0.3773    1.1264 c   0  0  0  0  0  0  0  0  0  0  0  0
   -1.8120   -0.7463    2.1167 h   0  0  0  0  0  0  0  0  0  0  0  0
   -1.1219    0.6377    1.2531 h   0  0  0  0  0  0  0  0  0  0  0  0
   -2.6592   -0.3426    0.2866 o   0  0  0  0  0  0  0  0  0  0  0  0
   -3.6271    0.5828    0.7156 c   0  0  0  0  0  0  0  0  0  0  0  0
   -3.8641    0.4233    1.7765 h   0  0  0  0  0  0  0  0  0  0  0  0
   -3.2504    1.6103    0.5968 h   0  0  0  0  0  0  0  0  0  0  0  0
   -4.8822    0.3738   -0.1245 c   0  0  0  0  0  0  0  0  0  0  0  0
   -4.6431    0.5046   -1.1897 h   0  0  0  0  0  0  0  0  0  0  0  0
   -5.2516   -0.6485    0.0265 h   0  0  0  0  0  0  0  0  0  0  0  0
   -5.8711    1.3007    0.2700 o   0  0  0  0  0  0  0  0  0  0  0  0
   -7.1047    1.0697   -0.3748 c   0  0  0  0  0  0  0  0  0  0  0  0
   -7.4759    0.0632   -0.1567 h   0  0  0  0  0  0  0  0  0  0  0  0
   -7.8034    1.8106    0.0105 h   0  0  0  0  0  0  0  0  0  0  0  0
   -7.0060    1.1821   -1.4604 h   0  0  0  0  0  0  0  0  0  0  0  0
    1.3333    0.2412    3.7461 c   0  0  0  0  0  0  0  0  0  0  0  0
    0.6069   -0.9824    3.8323 c   0  0  0  0  0  0  0  0  0  0  0  0
    0.0326   -1.9715    3.9028 n   0  0  0  0  0  0  0  0  0  0  0  0
    1.2754    0.7701    4.6965 h   0  0  0  0  0  0  0  0  0  0  0  0
    2.3748    0.0147    3.5149 h   0  0  0  0  0  0  0  0  0  0  0  0
    0.9076    0.8644    2.9596 h   0  0  0  0  0  0  0  0  0  0  0  0
   -3.1922   -2.1466    4.0858 c   0  0  0  0  0  0  0  0  0  0  0  0
   -3.2506   -0.7374    4.2990 c   0  0  0  0  0  0  0  0  0  0  0  0
   -3.2822    0.3950    4.4718 n   0  0  0  0  0  0  0  0  0  0  0  0
   -3.8057   -2.6541    4.8290 h   0  0  0  0  0  0  0  0  0  0  0  0
   -3.5547   -2.3834    3.0839 h   0  0  0  0  0  0  0  0  0  0  0  0
   -2.1517   -2.4662    4.1745 h   0  0  0  0  0  0  0  0  0  0  0  0
   -1.9823    3.3755    3.8773 c   0  0  0  0  0  0  0  0  0  0  0  0
   -1.0427    2.9674    2.8859 c   0  0  0  0  0  0  0  0  0  0  0  0
   -0.2908    2.6161    2.0956 n   0  0  0  0  0  0  0  0  0  0  0  0
   -1.4665    3.9687    4.6312 h   0  0  0  0  0  0  0  0  0  0  0  0
   -2.7536    3.9833    3.4057 h   0  0  0  0  0  0  0  0  0  0  0  0
   -2.4243    2.4870    4.3302 h   0  0  0  0  0  0  0  0  0  0  0  0
    2.6381   -4.1051    3.4120 c   0  0  0  0  0  0  0  0  0  0  0  0
    3.2585   -2.8216    3.5075 c   0  0  0  0  0  0  0  0  0  0  0  0
    3.7669   -1.7999    3.5951 n   0  0  0  0  0  0  0  0  0  0  0  0
    2.1537   -4.3423    4.3580 h   0  0  0  0  0  0  0  0  0  0  0  0
    1.8953   -4.0861    2.6166 h   0  0  0  0  0  0  0  0  0  0  0  0
    3.4050   -4.8463    3.1878 h   0  0  0  0  0  0  0  0  0  0  0  0
   -6.0390    1.7119    3.5073 c   0  0  0  0  0  0  0  0  0  0  0  0
   -6.4283    0.3385    3.4821 c   0  0  0  0  0  0  0  0  0  0  0  0
   -6.7320   -0.7648    3.4651 n   0  0  0  0  0  0  0  0  0  0  0  0
   -5.0909    1.7903    4.0391 h   0  0  0  0  0  0  0  0  0  0  0  0
   -5.9128    2.0556    2.4805 h   0  0  0  0  0  0  0  0  0  0  0  0
   -6.7994    2.3044    4.0126 h   0  0  0  0  0  0  0  0  0  0  0  0
    2.6337    4.0336    2.6063 c   0  0  0  0  0  0  0  0  0  0  0  0
    1.7465    4.8204    3.4030 c   0  0  0  0  0  0  0  0  0  0  0  0
    1.0168    5.4480    4.0259 n   0  0  0  0  0  0  0  0  0  0  0  0
    2.0558    3.2593    2.1036 h   0  0  0  0  0  0  0  0  0  0  0  0
    3.1224    4.6558    1.8565 h   0  0  0  0  0  0  0  0  0  0  0  0
    3.3876    3.5672    3.2370 h   0  0  0  0  0  0  0  0  0  0  0  0
   -3.0439   -6.1801    2.4629 c   0  0  0  0  0  0  0  0  0  0  0  0
   -2.8634   -6.9922    1.2992 c   0  0  0  0  0  0  0  0  0  0  0  0
   -2.7226   -7.6313    0.3596 n   0  0  0  0  0  0  0  0  0  0  0  0
   -2.1500   -6.2193    3.0845 h   0  0  0  0  0  0  0  0  0  0  0  0
   -3.2195   -5.1512    2.1408 h   0  0  0  0  0  0  0  0  0  0  0  0
   -3.9011   -6.5404    3.0319 h   0  0  0  0  0  0  0  0  0  0  0  0
   -0.2612    5.7038    0.6180 c   0  0  0  0  0  0  0  0  0  0  0  0
   -1.6140    5.5240    1.0304 c   0  0  0  0  0  0  0  0  0  0  0  0
   -2.6991    5.3784    1.3672 n   0  0  0  0  0  0  0  0  0  0  0  0
    0.2875    6.2233    1.4031 h   0  0  0  0  0  0  0  0  0  0  0  0
    0.1878    4.7248    0.4466 h   0  0  0  0  0  0  0  0  0  0  0  0
   -0.2346    6.2811   -0.3073 h   0  0  0  0  0  0  0  0  0  0  0  0
    6.8920   -2.4657    3.0519 c   0  0  0  0  0  0  0  0  0  0  0  0
    6.3069   -3.7713    2.9813 c   0  0  0  0  0  0  0  0  0  0  0  0
    5.8348   -4.8117    2.9184 n   0  0  0  0  0  0  0  0  0  0  0  0
    6.0878   -1.7349    3.1395 h   0  0  0  0  0  0  0  0  0  0  0  0
    7.5411   -2.4039    3.9242 h   0  0  0  0  0  0  0  0  0  0  0  0
    7.4713   -2.2705    2.1507 h   0  0  0  0  0  0  0  0  0  0  0  0
   -6.9335   -3.4600    1.9218 c   0  0  0  0  0  0  0  0  0  0  0  0
   -7.0169   -3.0301    0.5652 c   0  0  0  0  0  0  0  0  0  0  0  0
   -7.0755   -2.6777   -0.5235 n   0  0  0  0  0  0  0  0  0  0  0  0
   -6.9807   -2.5845    2.5729 h   0  0  0  0  0  0  0  0  0  0  0  0
   -7.7552   -4.1366    2.1486 h   0  0  0  0  0  0  0  0  0  0  0  0
   -5.9802   -3.9650    2.0697 h   0  0  0  0  0  0  0  0  0  0  0  0
    2.7818    7.7034   -1.0710 c   0  0  0  0  0  0  0  0  0  0  0  0
    3.3473    6.4993   -0.5556 c   0  0  0  0  0  0  0  0  0  0  0  0
    3.7969    5.5338   -0.1344 n   0  0  0  0  0  0  0  0  0  0  0  0
    2.5536    8.3790   -0.2478 h   0  0  0  0  0  0  0  0  0  0  0  0
    3.4881    8.1807   -1.7479 h   0  0  0  0  0  0  0  0  0  0  0  0
    1.8633    7.4685   -1.6128 h   0  0  0  0  0  0  0  0  0  0  0  0
   -1.6191   -6.3392   -2.3673 c   0  0  0  0  0  0  0  0  0  0  0  0
   -1.0813   -5.1398   -1.8146 c   0  0  0  0  0  0  0  0  0  0  0  0
   -0.6622   -4.1672   -1.3765 n   0  0  0  0  0  0  0  0  0  0  0  0
   -2.0798   -6.9295   -1.5740 h   0  0  0  0  0  0  0  0  0  0  0  0
   -2.3646   -6.0738   -3.1165 h   0  0  0  0  0  0  0  0  0  0  0  0
   -0.8220   -6.9155   -2.8347 h   0  0  0  0  0  0  0  0  0  0  0  0
   -4.9162    4.2823   -0.5745 c   0  0  0  0  0  0  0  0  0  0  0  0
   -4.0625    4.1387   -1.7086 c   0  0  0  0  0  0  0  0  0  0  0  0
   -3.3718    4.0260   -2.6147 n   0  0  0  0  0  0  0  0  0  0  0  0
   -4.3473    4.7553    0.2288 h   0  0  0  0  0  0  0  0  0  0  0  0
   -5.7721    4.9036   -0.8347 h   0  0  0  0  0  0  0  0  0  0  0  0
   -5.2577    3.3004   -0.2448 h   0  0  0  0  0  0  0  0  0  0  0  0
    5.3393    3.0156   -1.6073 c   0  0  0  0  0  0  0  0  0  0  0  0
    4.9768    3.1906   -2.9796 c   0  0  0  0  0  0  0  0  0  0  0  0
    4.6888    3.3338   -4.0803 n   0  0  0  0  0  0  0  0  0  0  0  0
    5.0125    3.8807   -1.0304 h   0  0  0  0  0  0  0  0  0  0  0  0
    4.8545    2.1185   -1.2233 h   0  0  0  0  0  0  0  0  0  0  0  0
    6.4202    2.9090   -1.5278 h   0  0  0  0  0  0  0  0  0  0  0  0
   -3.7802   -2.7504   -1.3965 c   0  0  0  0  0  0  0  0  0  0  0  0
   -3.7528   -3.1284   -0.0240 c   0  0  0  0  0  0  0  0  0  0  0  0
   -3.7603   -3.4326    1.0808 n   0  0  0  0  0  0  0  0  0  0  0  0
   -4.8042   -2.5133   -1.6794 h   0  0  0  0  0  0  0  0  0  0  0  0
   -3.1593   -1.8645   -1.5244 h   0  0  0  0  0  0  0  0  0  0  0  0
   -3.4061   -3.5574   -2.0254 h   0  0  0  0  0  0  0  0  0  0  0  0
   -1.1109    5.4387   -4.2670 c   0  0  0  0  0  0  0  0  0  0  0  0
   -0.4648    6.2453   -3.2862 c   0  0  0  0  0  0  0  0  0  0  0  0
    0.0563    6.8772   -2.4831 n   0  0  0  0  0  0  0  0  0  0  0  0
   -1.9383    4.9034   -3.7926 h   0  0  0  0  0  0  0  0  0  0  0  0
   -1.4952    6.0699   -5.0672 h   0  0  0  0  0  0  0  0  0  0  0  0
   -0.4014    4.7192   -4.6747 h   0  0  0  0  0  0  0  0  0  0  0  0
    1.0088   -1.9859   -3.0307 c   0  0  0  0  0  0  0  0  0  0  0  0
    0.5798   -1.9081   -4.3887 c   0  0  0  0  0  0  0  0  0  0  0  0
    0.2256   -1.8347   -5.4766 n   0  0  0  0  0  0  0  0  0  0  0  0
    0.9179   -1.0038   -2.5675 h   0  0  0  0  0  0  0  0  0  0  0  0
    0.3888   -2.7067   -2.4935 h   0  0  0  0  0  0  0  0  0  0  0  0
    2.0503   -2.3026   -2.9799 h   0  0  0  0  0  0  0  0  0  0  0  0
   -6.7524   -3.3140   -3.6864 c   0  0  0  0  0  0  0  0  0  0  0  0
   -6.0249   -2.1618   -4.1220 c   0  0  0  0  0  0  0  0  0  0  0  0
   -5.4454   -1.2397   -4.4719 n   0  0  0  0  0  0  0  0  0  0  0  0
   -6.0992   -4.1838   -3.7441 h   0  0  0  0  0  0  0  0  0  0  0  0
   -7.0779   -3.1692   -2.6547 h   0  0  0  0  0  0  0  0  0  0  0  0
   -7.6215   -3.4656   -4.3232 h   0  0  0  0  0  0  0  0  0  0  0  0
    3.2587    0.6186   -5.0370 c   0  0  0  0  0  0  0  0  0  0  0  0
    3.3793    0.4064   -3.6256 c   0  0  0  0  0  0  0  0  0  0  0  0
    3.4681    0.2325   -2.4981 n   0  0  0  0  0  0  0  0  0  0  0  0
    3.5982    1.6296   -5.2631 h   0  0  0  0  0  0  0  0  0  0  0  0
    3.8761   -0.1043   -5.5711 h   0  0  0  0  0  0  0  0  0  0  0  0
    2.2201    0.4971   -5.3414 h   0  0  0  0  0  0  0  0  0  0  0  0
   -2.8609   -2.5525   -6.0379 c   0  0  0  0  0  0  0  0  0  0  0  0
   -3.1135   -3.5703   -5.0722 c   0  0  0  0  0  0  0  0  0  0  0  0
   -3.3320   -4.3823   -4.2933 n   0  0  0  0  0  0  0  0  0  0  0  0
   -3.4920   -1.6928   -5.8105 h   0  0  0  0  0  0  0  0  0  0  0  0
   -1.8094   -2.2609   -5.9901 h   0  0  0  0  0  0  0  0  0  0  0  0
   -3.0918   -2.9245   -7.0351 h   0  0  0  0  0  0  0  0  0  0  0  0
  1  2  4  0  0  0  0
  2  3  4  0  0  0  0
  3  4  4  0  0  0  0
  4  5  4  0  0  0  0
  1  6  4  0  0  0  0
  5  6  4  0  0  0  0
  5  7  1  0  0  0  0
  7  8  1  0  0  0  0
  8  9  4  0  0  0  0
  9 10  4  0  0  0  0
 10 11  4  0  0  0  0
 11 12  4  0  0  0  0
  8 13  4  0  0  0  0
 12 13  4  0  0  0  0
  1 14  1  0  0  0  0
  2 15  1  0  0  0  0
  3 16  1  0  0  0  0
  6 17  1  0  0  0  0
  9 18  1  0  0  0  0
 10 19  1  0  0  0  0
 11 20  1  0  0  0  0
 12 21  1  0  0  0  0
  4 22  1  0  0  0  0
 13 22  1  0  0  0  0
  7 23  1  0  0  0  0
 23 24  1  0  0  0  0
 23 25  1  0  0  0  0
 23 26  1  0  0  0  0
 26 27  1  0  0  0  0
 26 28  1  0  0  0  0
 26 29  1  0  0  0  0
 29 30  1  0  0  0  0
 30 31  1  0  0  0  0
 30 32  1  0  0  0  0
 30 33  1  0  0  0  0
 33 34  1  0  0  0  0
 33 35  1  0  0  0  0
 33 36  1  0  0  0  0
 36 37  1  0  0  0  0
 37 38  1  0  0  0  0
 37 39  1  0  0  0  0
 37 40  1  0  0  0  0
 41 42  1  0  0  0  0
 42 43  3  0  0  0  0
 41 44  1  0  0  0  0
 41 45  1  0  0  0  0
 41 46  1  0  0  0  0
 47 48  1  0  0  0  0
 48 49  3  0  0  0  0
 47 50  1  0  0  0  0
 47 51  1  0  0  0  0
 47 52  1  0  0  0  0
 53 54  1  0  0  0  0
 54 55  3  0  0  0  0
 53 56  1  0  0  0  0
 53 57  1  0  0  0  0
 53 58  1  0  0  0  0
 59 60  1  0  0  0  0
 60 61  3  0  0  0  0
 59 62  1  0  0  0  0
 59 63  1  0  0  0  0
 59 64  1  0  0  0  0
 65 66  1  0  0  0  0
 66 67  3  0  0  0  0
 65 68  1  0  0  0  0
 65 69  1  0  0  0  0
 65 70  1  0  0  0  0
 71 72  1  0  0  0  0
 72 73  3  0  0  0  0
 71 74  1  0  0  0  0
 71 75  1  0  0  0  0
 71 76  1  0  0  0  0
 77 78  1  0  0  0  0
 78 79  3  0  0  0  0
 77 80  1  0  0  0  0
 77 81  1  0  0  0  0
 77 82  1  0  0  0  0
 83 84  1  0  0  0  0
 84 85  3  0  0  0  0
 83 86  1  0  0  0  0
 83 87  1  0  0  0  0
 83 88  1  0  0  0  0
 89 90  1  0  0  0  0
 90 91  3  0  0  0  0
 89 92  1  0  0  0  0
 89 93  1  0  0  0  0
 89 94  1  0  0  0  0
 95 96  1  0  0  0  0
 96 97  3  0  0  0  0
 95 98  1  0  0  0  0
 95 99  1  0  0  0  0
 95100  1  0  0  0  0
101102  1  0  0  0  0
102103  3  0  0  0  0
101104  1  0  0  0  0
101105  1  0  0  0  0
101106  1  0  0  0  0
107108  1  0  0  0  0
108109  3  0  0  0  0
107110  1  0  0  0  0
107111  1  0  0  0  0
107112  1  0  0  0  0
113114  1  0  0  0  0
114115  3  0  0  0  0
113116  1  0  0  0  0
113117  1  0  0  0  0
113118  1  0  0  0  0
119120  1  0  0  0  0
120121  3  0  0  0  0
119122  1  0  0  0  0
119123  1  0  0  0  0
119124  1  0  0  0  0
125126  1  0  0  0  0
126127  3  0  0  0  0
125128  1  0  0  0  0
125129  1  0  0  0  0
125130  1  0  0  0  0
131132  1  0  0  0  0
132133  3  0  0  0  0
131134  1  0  0  0  0
131135  1  0  0  0  0
131136  1  0  0  0  0
137138  1  0  0  0  0
138139  3  0  0  0  0
137140  1  0  0  0  0
137141  1  0  0  0  0
137142  1  0  0  0  0
143144  1  0  0  0  0
144145  3  0  0  0  0
143146  1  0  0  0  0
143147  1  0  0  0  0
143148  1  0  0  0  0
149150  1  0  0  0  0
150151  3  0  0  0  0
149152  1  0  0  0  0
149153  1  0  0  0  0
149154  1  0  0  0  0
155156  1  0  0  0  0
156157  3  0  0  0  0
155158  1  0  0  0  0
155159  1  0  0  0  0
155160  1  0  0  0  0
M  END
