  28

 C         -3.7186656361        0.6912376765       -0.1877174824
 H         -4.6745365928        0.2422900504       -0.4222678054
 C         -2.7884512311        1.2086953645       -1.1297518769
 H         -2.9207914739        1.2269056732       -2.2028468529
 C         -1.7382227188        1.8183601590       -0.4091119556
 H         -0.8968249343        2.3493117783       -0.8311867344
 C         -3.2272184956        0.9686320692        1.1160215125
 H         -3.7519309572        0.7778439857        2.0420702369
 C         -2.0142425060        1.6780478390        0.9745751158
 H         -1.4143936346        2.0815345525        1.7782311973
 C         -2.7170730799       -2.2087722223       -0.1963010475
 H         -3.7686513383       -2.4561311825       -0.2531486447
 C         -1.8681654124       -1.9225992373       -1.2996833687
 H         -2.1653665445       -1.9174115547       -2.3394524234
 C         -0.5514214509       -1.7772876620       -0.8065280091
 H          0.3388945995       -1.6075334224       -1.3955709543
 C         -1.9202978982       -2.2269853162        0.9794429683
 H         -2.2593220460       -2.5040983751        1.9681919834
 C         -0.5827835198       -1.9899166019        0.5935326027
 H          0.2804893884       -1.9951283964        1.2438799390
 Fe        -1.8454034191       -0.2927071122        0.0667074872
 F          1.2133521713        2.4572821055        0.1852552062
 P          1.7369593054        0.9052293721        0.0818355401
 F          2.4003010212        1.0135012691        1.5616801461
 F          0.9385015109        0.7540385351       -1.3620412661
 F          3.1021946280        1.3501563693       -0.6606199203
 F          2.1392713761       -0.6851654956        0.0013867741
 F          0.2688930932        0.4263035862        0.8336340447
          28
        -63.16845054
 C          2.0845832640        1.6235789044       -1.1953880314
 H          2.3712006024        1.5895326778       -2.2379456938
 C          2.9723551259        1.5417197068       -0.0881851155
 H          4.0470695242        1.4336066543       -0.1447690506
 C          2.2178214779        1.7459485992        1.0978389447
 H          2.6228812999        1.8327683486        2.0966176032
 C          0.7899713375        1.8882616893       -0.6932230385
 H         -0.1025693740        2.0594245798       -1.2785882105
 C          0.8795672872        1.9878568308        0.7172037807
 H          0.0617617491        2.2356356620        1.3792022411
 C          2.0567248998       -1.6174370860       -1.2073822615
 H          2.3027975994       -1.5852691557       -2.2603279993
 C          2.9847142431       -1.5183206369       -0.1351201143
 H          4.0547495942       -1.3946840011       -0.2332605344
 C          2.2790360838       -1.7270425271        1.0795239502
 H          2.7226684400       -1.8016198730        2.0627437139
 C          0.7868056972       -1.8988038196       -0.6552904130
 H         -0.1252656407       -2.0829231469       -1.2056108079
 C          0.9303294458       -1.9861309032        0.7516541389
 H          0.1414925657       -2.2376498419        1.4464723894
 Fe         1.5153843008       -0.0023503648        0.0686963752
 F         -1.4094601788       -0.0036174980       -1.4352742191
 P         -2.2490103363       -0.0026779434       -0.0065411006
 F         -2.1945162166       -1.6432355328        0.0003034984
 F         -2.1702411187        1.6376758598        0.0117602231
 F         -3.6668302055        0.0110426261       -0.7819254398
 F         -2.9503639008       -0.0021186147        1.4593373987
 F         -0.7249465450       -0.0161169467        0.7820425654
