  28

 C         -1.7101399999        1.0241499999       -0.6253100001
 H         -2.3473058744        1.6113342739       -1.2701560916
 C         -1.3179077181        1.3789668046        0.6883100470
 H         -1.5909718600        2.2852481753        1.2012802448
 C         -0.6059851158        0.2897969419        1.2458542289
 H         -0.2481710701        0.2201849161        2.2589360028
 C         -1.2353948720       -0.2856471485       -0.8798339029
 H         -1.4383919468       -0.8720160239       -1.7603386894
 C         -0.5537498565       -0.7394845115        0.2758023251
 H         -0.1521470674       -1.7275980374        0.4256675842
 C          1.3976683101        2.3425143764       -1.9764661137
 H          0.9064735030        2.9262098589       -2.7413166897
 C          1.7197415153        2.8039188796       -0.6767522134
 H          1.5073740335        3.7854227275       -0.2890238384
 C          2.4608487826        1.7932694806       -0.0209756257
 H          2.9277065043        1.8648131307        0.9459602689
 C          1.9427837574        1.0430489632       -2.1216987124
 H          1.9380469665        0.4498982294       -3.0208784147
 C          2.5981204116        0.7051475993       -0.9135644151
 H          3.1832360477       -0.1775592036       -0.7230972497
 Fe         0.4773100258        1.0309123353       -0.5089040590
 F          6.4345712593       -0.2214079084        2.9460842472
 P          6.2061305323        0.8459329410        1.7431086241
 F          7.5486098728        0.2995666618        1.0118083936
 F          4.8609808822        1.3822094722        2.4752651646
 F          7.0901212360        1.9419147192        2.5480564188
 F          5.9794699658        1.9095949892        0.5426756070
 F          5.3187595848       -0.2505008408        0.9414275212
