280
Solvated system with counter ions
C  2.730150  -3.277840  -1.015540
C  3.896954  -2.789466  -0.454369
C  3.920974  -1.497520  0.041753
C  2.778082  -0.718655  0.000821
C  1.587696  -1.196724  -0.554089
C  1.594723  -2.488629  -1.080856
N  0.449370  -0.387044  -0.587251
C  0.604594  0.962078  -0.916040
C  -0.291455  1.629991  -1.750915
C  -0.120492  2.969235  -2.053665
C  0.961166  3.672602  -1.553313
C  1.873152  3.023463  -0.739450
C  1.687035  1.691049  -0.415788
H  2.699208  -4.278516  -1.418914
H  4.781832  -3.404394  -0.406026
H  4.815823  -1.088323  0.484789
H  0.708943  -2.882647  -1.553349
H  -1.131749  1.101173  -2.168812
H  -0.839502  3.461150  -2.691364
H  1.096357  4.716261  -1.790038
H  2.724195  3.548192  -0.333576
S  2.828590  0.912067  0.698267
C  -0.862231  -0.990535  -0.648018
H  -1.293324  -0.980855  -1.655935
H  -0.781205  -2.030366  -0.331986
C  -1.830839  -0.293339  0.315726
H  -1.482359  -0.421826  1.352934
H  -1.880020  0.786130  0.109854
O  -3.100618  -0.880220  0.146535
C  -4.083210  -0.326605  0.992609
H  -3.820415  -0.515290  2.044499
H  -4.154942  0.759547  0.836659
C  -5.430391  -0.967548  0.679270
H  -5.269756  -2.027838  0.440149
H  -6.085369  -0.898793  1.560898
O  -6.029315  -0.305568  -0.412775
C  -7.239013  -0.906287  -0.812359
H  -7.971337  -0.898974  0.004451
H  -7.617385  -0.321891  -1.648104
H  -7.079771  -1.942742  -1.131734
C  2.802046  1.033548  6.741263
C  1.825629  0.252290  7.438951
N  1.045932  -0.372607  7.998188
H  2.933487  1.986868  7.251456
H  3.749426  0.496550  6.721592
H  2.462804  1.210497  5.721434
C  -3.540684  -2.204214  8.039208
C  -3.357330  -2.734553  6.721928
N  -3.215204  -3.161763  5.669104
H  -3.366433  -1.129324  8.023978
H  -4.558457  -2.403137  8.372496
H  -2.832586  -2.673749  8.720805
C  0.636732  7.440457  6.218319
C  0.231118  6.096216  5.934884
N  -0.095108  5.022416  5.707527
H  1.313734  7.442128  7.071643
H  1.148324  7.855427  5.350638
H  -0.240750  8.043717  6.447729
C  1.878441  -4.276263  4.395955
C  3.216413  -3.783382  4.530275
N  4.287155  -3.391539  4.634471
H  1.268547  -3.904837  5.218296
H  1.460546  -3.933656  3.450377
H  1.889634  -5.365201  4.413722
C  -6.118601  2.507295  5.591838
C  -6.765775  1.233325  5.687193
N  -7.283806  0.214885  5.763283
H  -5.975386  2.919007  6.590028
H  -5.150605  2.390662  5.106008
H  -6.736298  3.186299  5.005604
C  5.080367  4.799452  3.745467
C  5.247113  5.325716  5.066956
N  5.372730  5.742320  6.126117
H  4.018597  4.750317  3.507861
H  5.582510  5.448419  3.029439
H  5.510632  3.800258  3.692983
C  -2.804414  -6.493216  1.790794
C  -1.517030  -7.019459  1.448997
N  -0.487468  -7.442601  1.180580
H  -2.979748  -6.626426  2.857391
H  -2.840262  -5.432203  1.547695
H  -3.573414  -7.020326  1.227935
C  -2.261766  6.670522  1.223829
C  -3.515232  6.272362  1.789315
N  -4.519780  5.955775  2.238781
H  -2.323940  6.630245  0.137228
H  -2.026456  7.686973  1.536245
H  -1.477927  5.996910  1.566902
C  8.806587  -3.594071  2.471076
C  10.142548  -4.112375  2.482441
N  11.210850  -4.524154  2.488891
H  8.621214  -3.044725  3.393022
H  8.683530  -2.926920  1.619028
H  8.097500  -4.417148  2.394174
C  -8.355703  -4.405012  3.843167
C  -8.089088  -5.064135  2.599976
N  -7.875137  -5.590090  1.605516
H  -7.415166  -4.107197  4.304964
H  -8.964584  -3.519922  3.663569
H  -8.888889  -5.083559  4.507712
C  4.138688  8.611569  -0.941755
C  3.207565  8.408846  0.126493
N  2.463753  8.244799  0.981764
H  3.751068  9.367829  -1.623070
H  5.093521  8.941422  -0.534308
H  4.280312  7.676976  -1.483018
C  1.544561  -8.736768  -3.303763
C  2.263397  -7.909901  -4.226185
N  2.838399  -7.247467  -4.962224
H  2.068103  -8.755517  -2.348779
H  0.544205  -8.331349  -3.157748
H  1.474251  -9.748679  -3.700470
C  -7.184656  4.699897  -1.736686
C  -6.026190  4.996303  -2.524731
N  -5.103393  5.230167  -3.161057
H  -6.945234  3.911545  -1.024393
H  -7.493791  5.593540  -1.196008
H  -7.992738  4.370029  -2.388414
C  9.411189  3.703918  -1.753451
C  8.767899  4.804301  -1.100051
N  8.256637  5.683942  -0.574860
H  8.848708  2.791096  -1.562208
H  9.442892  3.888710  -2.826412
H  10.425460  3.596173  -1.370980
C  -5.423113  -5.902262  -3.442003
C  -4.033791  -5.607137  -3.254905
N  -2.921990  -5.377928  -3.105002
H  -5.929358  -5.898971  -2.477483
H  -5.869112  -5.148901  -4.089909
H  -5.526059  -6.883955  -3.902803
C  -1.399847  7.480681  -5.837001
C  -0.103533  7.762021  -5.296166
N  0.933809  7.989308  -4.867932
H  -2.160681  7.969929  -5.230249
H  -1.455011  7.852676  -6.859357
H  -1.570635  6.405011  -5.830997
C  4.919645  -2.318254  -5.953365
C  4.580368  -1.822148  -7.253685
N  4.307249  -1.423049  -8.291576
H  5.890294  -1.923240  -5.656567
H  4.164586  -1.998943  -5.236099
H  4.959899  -3.406343  -5.978578
C  -4.956458  0.760193  -5.574297
C  -5.289965  -0.504325  -6.158725
N  -5.562218  -1.513528  -6.626060
H  -4.632819  0.609600  -4.545487
H  -4.150448  1.221508  -6.143031
H  -5.830599  1.409659  -5.590613
C  3.422559  3.062223  -6.005550
C  4.530689  2.756481  -5.151259
N  5.418435  2.510209  -4.471345
H  3.086539  4.080509  -5.814319
H  3.731334  2.967355  -7.045895
H  2.609532  2.365645  -5.805910
C  -0.469069  -3.353877  -7.083075
C  -0.380583  -2.045488  -6.508675
N  -0.303208  -0.998466  -6.051720
H  -0.050742  -4.083033  -6.390550
H  -1.513804  -3.594485  -7.275894
H  0.091309  -3.376376  -8.016975
C  2.473209  0.276511  9.466530
C  3.934713  0.252829  9.491912
N  5.094634  0.234035  9.512057
H  2.066652  0.270950  10.482209
H  2.107740  1.174205  8.959086
H  2.079410  -0.596732  8.938049
C  -4.533621  -3.281855  8.466530
C  -3.072118  -3.305537  8.491912
N  -1.912197  -3.324331  8.512057
H  -4.940178  -3.287416  9.482209
H  -4.899090  -2.384161  7.959086
H  -4.927420  -4.155098  7.938049
C  -0.071023  6.865563  7.466530
C  1.390481  6.841881  7.491912
N  2.550401  6.823087  7.512057
H  -0.477580  6.860002  8.482209
H  -0.436492  7.763257  6.959086
H  -0.464822  5.992320  6.938049
C  3.974445  -5.754333  6.466530
C  5.435949  -5.778014  6.491912
N  6.595870  -5.796809  6.512057
H  3.567888  -5.759894  7.482209
H  3.608976  -4.856638  5.959086
H  3.580646  -6.627576  5.938049
C  -8.873269  1.731217  5.466530
C  -7.411765  1.707535  5.491912
N  -6.251844  1.688741  5.512057
H  -9.279826  1.725656  6.482209
H  -9.238738  2.628911  4.959086
H  -9.267068  0.857974  4.938049
C  6.885686  5.069646  4.466530
C  8.347190  5.045964  4.491912
N  9.507110  5.027170  4.512057
H  6.479129  5.064084  5.482209
H  6.520217  5.967340  3.959086
H  6.491887  4.196403  3.938049
C  -3.081132  -8.769822  3.466530
C  -1.619628  -8.793504  3.491912
N  -0.459708  -8.812298  3.512057
H  -3.487689  -8.775384  4.482209
H  -3.446601  -7.872128  2.959086
H  -3.474931  -9.643065  2.938049
C  -5.112003  8.869193  2.466530
C  -3.650499  8.845512  2.491912
N  -2.490578  8.826717  2.512057
H  -5.518560  8.863632  3.482209
H  -5.477472  9.766888  1.959086
H  -5.505802  7.995950  1.938049
C  8.637648  -3.115064  1.466530
C  10.099152  -3.138746  1.491912
N  11.259073  -3.157540  1.512057
H  8.231092  -3.120625  2.482209
H  8.272180  -2.217370  0.959086
H  8.243850  -3.988307  0.938049
C  -9.881184  -3.534281  0.466530
C  -8.419680  -3.557962  0.491912
N  -7.259759  -3.576757  0.512057
H  -10.287741  -3.539842  1.482209
H  -10.246653  -2.636586  -0.040914
H  -10.274983  -4.407524  -0.061951
C  3.583869  9.322525  -0.533470
C  5.045373  9.298843  -0.508088
N  6.205293  9.280049  -0.487943
H  3.177312  9.316963  0.482209
H  3.218400  10.220219  -1.040914
H  3.190070  8.449282  -1.061951
C  2.309688  -9.157176  -1.533470
C  3.771192  -9.180858  -1.508088
N  4.931112  -9.199652  -1.487943
H  1.903131  -9.162738  -0.517791
H  1.944219  -8.259482  -2.040914
H  1.915889  -10.030419  -2.061951
C  -9.026661  5.131369  -2.533470
C  -7.565157  5.107687  -2.508088
N  -6.405237  5.088893  -2.487943
H  -9.433218  5.125808  -1.517791
H  -9.392130  6.029063  -3.040914
H  -9.420460  4.258126  -3.061951
C  8.499718  2.287894  -3.533470
C  9.961221  2.264213  -3.508088
N  11.121142  2.245419  -3.487943
H  8.093161  2.282333  -2.517791
H  8.134249  3.185589  -4.040914
H  8.105919  1.414652  -4.061951
C  -5.785360  -7.029020  -4.533470
C  -4.323856  -7.052702  -4.508088
N  -3.163935  -7.071496  -4.487943
H  -6.191917  -7.034582  -3.517791
H  -6.150829  -6.131326  -5.040914
H  -6.179159  -7.902263  -5.061951
C  -1.722566  8.558907  -5.533470
C  -0.261062  8.535225  -5.508088
N  0.898859  8.516431  -5.487943
H  -2.129122  8.553345  -4.517791
H  -2.088034  9.456601  -6.040914
H  -2.116364  7.685664  -6.061951
C  5.161540  -4.620862  -6.533470
C  6.623043  -4.644544  -6.508088
N  7.782964  -4.663338  -6.487943
H  4.754983  -4.626424  -5.517791
H  4.796071  -3.723168  -7.040914
H  4.767741  -5.494105  -7.061951
C  -7.258020  0.003219  -7.533470
C  -5.796516  -0.020462  -7.508088
N  -4.636595  -0.039257  -7.487943
H  -7.664577  -0.002342  -6.517791
H  -7.623489  0.900914  -8.040914
H  -7.651819  -0.870024  -8.061951
C  3.084701  3.992330  -8.533470
C  4.546205  3.968649  -8.508088
N  5.706125  3.949854  -8.487943
H  2.678144  3.986769  -7.517791
H  2.719232  4.890025  -9.040914
H  2.690902  3.119087  -9.061951
C  -0.793522  -2.842655  -9.533470
C  0.667981  -2.866337  -9.508088
N  1.827902  -2.885131  -9.487943
H  -1.200079  -2.848217  -8.517791
H  -1.158991  -1.944961  -10.040914
H  -1.187321  -3.715898  -10.061951
