170
Solvated system with counter ions
C  -3.535610  0.974710  0.779180
H  -4.614870  0.952210  0.759790
C  -2.692630  1.504680  -0.237820
H  -3.014700  1.952560  -1.167340
C  -1.328050  1.298630  0.161610
C  -2.704270  0.456970  1.817970
H  -3.047750  -0.031610  2.717440
C  -1.344060  0.645880  1.444270
H  -0.473630  0.306840  1.981840
C  -3.393070  -2.000190  -0.748290
H  -4.471740  -2.024080  -0.798510
C  -2.515930  -1.468220  -1.741510
H  -2.817720  -1.020170  -2.677000
C  -1.176440  -1.621750  -1.273470
H  -0.268750  -1.307550  -1.766090
C  -2.589960  -2.480200  0.330790
H  -2.958650  -2.924460  1.243680
C  -1.221450  -2.244330  0.005990
H  -0.354560  -2.456520  0.611670
Fe  -2.273720  -0.477100  0.039460
C  -0.137850  1.552170  -0.688170
H  -0.434620  1.715360  -1.726730
H  0.561370  0.726470  -0.645060
N  0.695680  2.797380  -0.308570
C  1.211680  2.676840  1.099420
H  0.361770  2.656150  1.778650
H  1.787600  1.756760  1.175330
H  1.839830  3.545210  1.304970
C  -0.135810  4.029200  -0.439640
H  0.459830  4.897140  -0.152540
H  -0.460670  4.128150  -1.476590
H  -1.006290  3.933210  0.209310
C  1.869270  2.850480  -1.246230
H  1.495500  2.919050  -2.268710
H  2.467280  3.731750  -1.008230
H  2.455520  1.941430  -1.110860
P  2.705140  -1.040380  0.129320
F  1.976890  -2.466880  0.031840
F  1.944050  -0.571190  -1.258590
F  3.948850  -1.544650  -0.725530
F  3.348440  0.471450  0.212250
F  3.413440  -1.429850  1.502560
F  1.405010  -0.460920  0.973550
F  7.637361  -0.573751  -0.880415
P  7.786882  0.875387  -0.072789
F  9.332917  1.402373  -0.415231
F  6.497601  0.462007  0.883005
F  8.698928  0.126398  1.106941
F  6.659038  2.078886  -0.239376
F  6.613411  -0.000268  -0.895672
C  2.738174  0.632031  7.403246
C  4.199670  0.609192  7.429801
N  5.359585  0.591065  7.450874
H  2.330834  0.628261  8.418619
H  2.372614  1.528521  6.893741
H  2.345255  -0.242470  6.876191
C  -2.782796  -2.171752  6.615305
C  -1.321300  -2.194592  6.641860
N  -0.161385  -2.212718  6.662933
H  -3.190137  -2.175523  7.630678
H  -3.148357  -1.275262  6.105800
H  -3.175715  -3.046253  6.088250
C  0.733469  5.823817  5.827363
C  2.194965  5.800977  5.853919
N  3.354880  5.782851  5.874991
H  0.326128  5.820046  6.842737
H  0.367908  6.720306  5.317859
H  0.340550  4.949316  5.300309
C  3.921060  -4.119919  5.039422
C  5.382556  -4.142759  5.065978
N  6.542471  -4.160885  5.087050
H  3.513719  -4.123690  6.054795
H  3.555499  -3.223429  4.529918
H  3.528141  -4.994420  4.512368
C  -6.202183  1.778254  4.251481
C  -4.740687  1.755414  4.278036
N  -3.580772  1.737288  4.299109
H  -6.609524  1.774483  5.266854
H  -6.567744  2.674744  3.741977
H  -6.595102  0.903753  3.724426
C  6.214946  4.408739  3.463540
C  7.676442  4.385900  3.490095
N  8.836357  4.367774  3.511168
H  5.807606  4.404969  4.478913
H  5.849386  5.305229  2.954036
H  5.822028  3.534239  2.936485
C  -1.638320  -6.495947  2.675599
C  -0.176824  -6.518787  2.702154
N  0.983091  -6.536913  2.723227
H  -2.045661  -6.499718  3.690972
H  -2.003881  -5.599458  2.166094
H  -2.031239  -7.370448  2.148544
C  -3.238527  7.402560  1.887657
C  -1.777031  7.379720  1.914213
N  -0.617116  7.361594  1.935286
H  -3.645867  7.398789  2.903031
H  -3.604087  8.299049  1.378153
H  -3.631446  6.528059  1.360603
C  7.595390  -2.040331  1.099716
C  9.056886  -2.063170  1.126272
N  10.216801  -2.081296  1.147344
H  7.188049  -2.044101  2.115089
H  7.229829  -1.143841  0.590212
H  7.202471  -2.914831  0.572662
C  -6.996361  -2.370649  0.311775
C  -5.534865  -2.393488  0.338330
N  -4.374950  -2.411615  0.359403
H  -7.403702  -2.374419  1.327148
H  -7.361921  -1.474159  -0.197729
H  -7.389280  -3.245149  -0.215280
C  3.613308  7.759758  -0.476166
C  5.074805  7.736919  -0.449611
N  6.234719  7.718792  -0.428538
H  3.205968  7.755988  0.539207
H  3.247748  8.656248  -0.985670
H  3.220390  6.885257  -1.003221
C  2.609329  -6.801160  -1.264107
C  4.070825  -6.823999  -1.237552
N  5.230740  -6.842125  -1.216479
H  2.201988  -6.804930  -0.248734
H  2.243769  -5.904670  -1.773612
H  2.216410  -7.675660  -1.791162
C  -6.323048  4.457374  -2.052049
C  -4.861551  4.434534  -2.025493
N  -3.701637  4.416408  -2.004420
H  -6.730388  4.453603  -1.036675
H  -6.688608  5.353863  -2.561553
H  -6.715966  3.582873  -2.579103
C  7.486708  2.216883  -2.839990
C  8.948204  2.194044  -2.813434
N  10.108119  2.175917  -2.792362
H  7.079368  2.213113  -1.824617
H  7.121148  3.113373  -3.349494
H  7.093790  1.342382  -3.367044
C  -3.769093  -5.124298  -3.627931
C  -2.307596  -5.147137  -3.601375
N  -1.147682  -5.165264  -3.580303
H  -4.176433  -5.128068  -2.612558
H  -4.134653  -4.227808  -4.137435
H  -4.162011  -5.998798  -4.154985
C  -0.567850  7.158072  -4.415872
C  0.893646  7.135232  -4.389317
N  2.053561  7.117106  -4.368244
H  -0.975190  7.154301  -3.400499
H  -0.933410  8.054562  -4.925376
H  -0.960768  6.283571  -4.942927
C  4.856420  -3.226811  -5.203813
C  6.317916  -3.249650  -5.177258
N  7.477831  -3.267777  -5.156185
H  4.449080  -3.230581  -4.188440
H  4.490860  -2.330321  -5.713318
H  4.463502  -4.101312  -5.730868
C  -4.929462  0.416693  -5.991754
C  -3.467966  0.393854  -5.965199
N  -2.308051  0.375727  -5.944126
H  -5.336803  0.412923  -4.976381
H  -5.295022  1.313183  -6.501259
H  -5.322381  -0.457807  -6.518809
C  3.219993  3.559878  -6.779696
C  4.681490  3.537039  -6.753140
N  5.841404  3.518912  -6.732068
H  2.812653  3.556108  -5.764322
H  2.854433  4.456368  -7.289200
H  2.827075  2.685378  -7.306750
C  0.164181  -1.825688  -7.567637
C  1.625678  -1.848528  -7.541081
N  2.785593  -1.866654  -7.520009
H  -0.243159  -1.829459  -6.552264
H  -0.201379  -0.929199  -8.077141
H  -0.228737  -2.700189  -8.094691
