 xtb: 6.6.0 (conda-forge)
          02182501273D

170152  0     0  0            999 V2000
   -3.5356    0.9747    0.7792 C   0  0  0  0  0  0  0  0  0  0  0  0
   -4.5347    1.1334    1.1446 H   0  0  0  0  0  0  0  0  0  0  0  0
   -2.9999    1.4834   -0.4314 C   0  0  0  0  0  0  0  0  0  0  0  0
   -3.5084    2.1359   -1.1208 H   0  0  0  0  0  0  0  0  0  0  0  0
   -1.5993    1.2068   -0.4419 C   0  0  0  0  0  0  0  0  0  0  0  0
   -2.5279    0.2391    1.4201 C   0  0  0  0  0  0  0  0  0  0  0  0
   -2.6006   -0.2407    2.3787 H   0  0  0  0  0  0  0  0  0  0  0  0
   -1.3191    0.4101    0.6840 C   0  0  0  0  0  0  0  0  0  0  0  0
   -0.3482    0.0570    0.9818 H   0  0  0  0  0  0  0  0  0  0  0  0
   -2.9493   -3.0526   -1.4482 C   0  0  0  0  0  0  0  0  0  0  0  0
   -3.7681   -3.7372   -1.3010 H   0  0  0  0  0  0  0  0  0  0  0  0
   -2.7821   -2.1724   -2.5578 C   0  0  0  0  0  0  0  0  0  0  0  0
   -3.4376   -2.0934   -3.4118 H   0  0  0  0  0  0  0  0  0  0  0  0
   -1.4955   -1.5924   -2.4576 C   0  0  0  0  0  0  0  0  0  0  0  0
   -1.0362   -0.9502   -3.1871 H   0  0  0  0  0  0  0  0  0  0  0  0
   -1.8106   -2.9376   -0.6344 C   0  0  0  0  0  0  0  0  0  0  0  0
   -1.6034   -3.4971    0.2605 H   0  0  0  0  0  0  0  0  0  0  0  0
   -0.8983   -2.0499   -1.2701 C   0  0  0  0  0  0  0  0  0  0  0  0
    0.1040   -1.8445   -0.9394 H   0  0  0  0  0  0  0  0  0  0  0  0
   -2.8759   -0.9381   -0.7042 Fe  0  0  0  0  0  0  0  0  0  0  0  0
   -0.6128    1.7203   -1.4406 C   0  0  0  0  0  0  0  0  0  0  0  0
   -1.0897    1.8376   -2.4179 H   0  0  0  0  0  0  0  0  0  0  0  0
    0.2290    1.0309   -1.5170 H   0  0  0  0  0  0  0  0  0  0  0  0
   -0.0559    3.0607   -1.0713 N   0  0  0  0  0  0  0  0  0  0  0  0
    0.6301    3.0042    0.2285 C   0  0  0  0  0  0  0  0  0  0  0  0
   -0.0691    2.7127    1.0085 H   0  0  0  0  0  0  0  0  0  0  0  0
    1.4461    2.2830    0.1936 H   0  0  0  0  0  0  0  0  0  0  0  0
    1.0425    3.9856    0.4536 H   0  0  0  0  0  0  0  0  0  0  0  0
   -1.1359    4.0625   -1.0147 C   0  0  0  0  0  0  0  0  0  0  0  0
   -0.7018    5.0375   -0.8036 H   0  0  0  0  0  0  0  0  0  0  0  0
   -1.6450    4.0915   -1.9759 H   0  0  0  0  0  0  0  0  0  0  0  0
   -1.8371    3.8028   -0.2260 H   0  0  0  0  0  0  0  0  0  0  0  0
    0.9086    3.4606   -2.1088 C   0  0  0  0  0  0  0  0  0  0  0  0
    0.4154    3.4768   -3.0786 H   0  0  0  0  0  0  0  0  0  0  0  0
    1.2925    4.4521   -1.8780 H   0  0  0  0  0  0  0  0  0  0  0  0
    1.7455    2.7640   -2.1315 H   0  0  0  0  0  0  0  0  0  0  0  0
    3.0860   -0.9575    0.0491 P   0  0  0  0  0  0  0  0  0  0  0  0
    2.7881   -2.3834   -0.6811 F   0  0  0  0  0  0  0  0  0  0  0  0
    2.1348   -0.2219   -1.0440 F   0  0  0  0  0  0  0  0  0  0  0  0
    4.3664   -0.7681   -0.9030 F   0  0  0  0  0  0  0  0  0  0  0  0
    3.3275    0.4485    0.7964 F   0  0  0  0  0  0  0  0  0  0  0  0
    4.0111   -1.7187    1.1471 F   0  0  0  0  0  0  0  0  0  0  0  0
    1.7778   -1.2013    0.9816 F   0  0  0  0  0  0  0  0  0  0  0  0
    6.0731    0.9161   -2.1872 F   0  0  0  0  0  0  0  0  0  0  0  0
    5.6438    2.1989   -1.2991 P   0  0  0  0  0  0  0  0  0  0  0  0
    5.5241    3.0801   -2.6661 F   0  0  0  0  0  0  0  0  0  0  0  0
    5.8110    1.3511    0.0624 F   0  0  0  0  0  0  0  0  0  0  0  0
    7.2200    2.6217   -1.1978 F   0  0  0  0  0  0  0  0  0  0  0  0
    5.2579    3.5164   -0.4300 F   0  0  0  0  0  0  0  0  0  0  0  0
    4.0809    1.8353   -1.4323 F   0  0  0  0  0  0  0  0  0  0  0  0
    4.8566    1.8242    3.5094 C   0  0  0  0  0  0  0  0  0  0  0  0
    3.5727    1.5559    4.0799 C   0  0  0  0  0  0  0  0  0  0  0  0
    2.5458    1.3593    4.5469 N   0  0  0  0  0  0  0  0  0  0  0  0
    4.8538    1.5226    2.4620 H   0  0  0  0  0  0  0  0  0  0  0  0
    5.0699    2.8901    3.5749 H   0  0  0  0  0  0  0  0  0  0  0  0
    5.6209    1.2610    4.0422 H   0  0  0  0  0  0  0  0  0  0  0  0
   -0.3161   -2.3216    6.5161 C   0  0  0  0  0  0  0  0  0  0  0  0
   -0.5869   -3.2471    5.4577 C   0  0  0  0  0  0  0  0  0  0  0  0
   -0.8199   -3.9910    4.6189 N   0  0  0  0  0  0  0  0  0  0  0  0
    0.7601   -2.2350    6.6580 H   0  0  0  0  0  0  0  0  0  0  0  0
   -0.7206   -1.3445    6.2565 H   0  0  0  0  0  0  0  0  0  0  0  0
   -0.7767   -2.6787    7.4363 H   0  0  0  0  0  0  0  0  0  0  0  0
    1.2014    6.0624    5.3645 C   0  0  0  0  0  0  0  0  0  0  0  0
    2.4024    6.7833    5.0644 C   0  0  0  0  0  0  0  0  0  0  0  0
    3.3582    7.3669    4.8256 N   0  0  0  0  0  0  0  0  0  0  0  0
    1.3987    5.3508    6.1651 H   0  0  0  0  0  0  0  0  0  0  0  0
    0.4286    6.7623    5.6796 H   0  0  0  0  0  0  0  0  0  0  0  0
    0.8718    5.5248    4.4769 H   0  0  0  0  0  0  0  0  0  0  0  0
    4.6015   -3.9528    3.8453 C   0  0  0  0  0  0  0  0  0  0  0  0
    4.8746   -3.2864    5.0824 C   0  0  0  0  0  0  0  0  0  0  0  0
    5.0863   -2.7636    6.0790 N   0  0  0  0  0  0  0  0  0  0  0  0
    3.7508   -4.6209    3.9692 H   0  0  0  0  0  0  0  0  0  0  0  0
    4.3709   -3.2155    3.0768 H   0  0  0  0  0  0  0  0  0  0  0  0
    5.4756   -4.5273    3.5427 H   0  0  0  0  0  0  0  0  0  0  0  0
   -8.8281    1.4223    5.9369 C   0  0  0  0  0  0  0  0  0  0  0  0
   -8.5339    1.0657    4.5806 C   0  0  0  0  0  0  0  0  0  0  0  0
   -8.2968    0.7803    3.4979 N   0  0  0  0  0  0  0  0  0  0  0  0
   -7.9889    1.1467    6.5746 H   0  0  0  0  0  0  0  0  0  0  0  0
   -8.9959    2.4966    6.0029 H   0  0  0  0  0  0  0  0  0  0  0  0
   -9.7224    0.8947    6.2662 H   0  0  0  0  0  0  0  0  0  0  0  0
    9.4870    3.3184    1.4322 C   0  0  0  0  0  0  0  0  0  0  0  0
   10.5191    3.8344    0.5843 C   0  0  0  0  0  0  0  0  0  0  0  0
   11.3410    4.2589   -0.0905 N   0  0  0  0  0  0  0  0  0  0  0  0
    9.8905    2.5232    2.0567 H   0  0  0  0  0  0  0  0  0  0  0  0
    9.0974    4.1180    2.0605 H   0  0  0  0  0  0  0  0  0  0  0  0
    8.6829    2.9190    0.8144 H   0  0  0  0  0  0  0  0  0  0  0  0
    0.1721   -8.1709    0.9488 C   0  0  0  0  0  0  0  0  0  0  0  0
    0.2958   -7.6830   -0.3903 C   0  0  0  0  0  0  0  0  0  0  0  0
    0.3882   -7.2934   -1.4634 N   0  0  0  0  0  0  0  0  0  0  0  0
    0.9749   -8.8793    1.1498 H   0  0  0  0  0  0  0  0  0  0  0  0
    0.2453   -7.3359    1.6448 H   0  0  0  0  0  0  0  0  0  0  0  0
   -0.7908   -8.6653    1.0697 H   0  0  0  0  0  0  0  0  0  0  0  0
    2.3966    8.4773    0.0951 C   0  0  0  0  0  0  0  0  0  0  0  0
    1.7024    7.2344   -0.0078 C   0  0  0  0  0  0  0  0  0  0  0  0
    1.1294    6.2463   -0.0911 N   0  0  0  0  0  0  0  0  0  0  0  0
    3.4371    8.2900    0.3576 H   0  0  0  0  0  0  0  0  0  0  0  0
    2.3509    8.9952   -0.8621 H   0  0  0  0  0  0  0  0  0  0  0  0
    1.9329    9.0907    0.8667 H   0  0  0  0  0  0  0  0  0  0  0  0
    7.2581   -2.0802   -0.5559 C   0  0  0  0  0  0  0  0  0  0  0  0
    8.4423   -1.8234    0.2022 C   0  0  0  0  0  0  0  0  0  0  0  0
    9.3940   -1.6275    0.8085 N   0  0  0  0  0  0  0  0  0  0  0  0
    6.4731   -2.4486    0.1023 H   0  0  0  0  0  0  0  0  0  0  0  0
    6.9047   -1.1559   -1.0112 H   0  0  0  0  0  0  0  0  0  0  0  0
    7.4621   -2.8150   -1.3323 H   0  0  0  0  0  0  0  0  0  0  0  0
   -7.2350   -1.1366   -0.9573 C   0  0  0  0  0  0  0  0  0  0  0  0
   -5.8284   -1.0583   -0.8521 C   0  0  0  0  0  0  0  0  0  0  0  0
   -4.6800   -0.9897   -0.7610 N   0  0  0  0  0  0  0  0  0  0  0  0
   -7.6291   -1.7752   -0.1658 H   0  0  0  0  0  0  0  0  0  0  0  0
   -7.6644   -0.1387   -0.8597 H   0  0  0  0  0  0  0  0  0  0  0  0
   -7.5028   -1.5514   -1.9298 H   0  0  0  0  0  0  0  0  0  0  0  0
    7.3556    6.1810   -2.4804 C   0  0  0  0  0  0  0  0  0  0  0  0
    6.3697    7.0023   -3.1114 C   0  0  0  0  0  0  0  0  0  0  0  0
    5.5843    7.6711   -3.6086 N   0  0  0  0  0  0  0  0  0  0  0  0
    7.6818    6.6483   -1.5527 H   0  0  0  0  0  0  0  0  0  0  0  0
    6.9262    5.2040   -2.2591 H   0  0  0  0  0  0  0  0  0  0  0  0
    8.2097    6.0534   -3.1435 H   0  0  0  0  0  0  0  0  0  0  0  0
    3.2800   -5.6072   -1.9486 C   0  0  0  0  0  0  0  0  0  0  0  0
    4.1051   -6.2602   -0.9806 C   0  0  0  0  0  0  0  0  0  0  0  0
    4.7566   -6.7958   -0.2050 N   0  0  0  0  0  0  0  0  0  0  0  0
    2.3083   -6.1021   -1.9800 H   0  0  0  0  0  0  0  0  0  0  0  0
    3.1485   -4.5639   -1.6648 H   0  0  0  0  0  0  0  0  0  0  0  0
    3.7567   -5.6594   -2.9258 H   0  0  0  0  0  0  0  0  0  0  0  0
   -2.7172    3.4102   -6.4862 C   0  0  0  0  0  0  0  0  0  0  0  0
   -2.2303    3.1805   -5.1650 C   0  0  0  0  0  0  0  0  0  0  0  0
   -1.8543    2.9976   -4.0988 N   0  0  0  0  0  0  0  0  0  0  0  0
   -2.5695    4.4573   -6.7480 H   0  0  0  0  0  0  0  0  0  0  0  0
   -2.1685    2.7841   -7.1885 H   0  0  0  0  0  0  0  0  0  0  0  0
   -3.7784    3.1679   -6.5284 H   0  0  0  0  0  0  0  0  0  0  0  0
    9.0889    1.2662   -4.0493 C   0  0  0  0  0  0  0  0  0  0  0  0
    8.6320    1.9166   -5.2392 C   0  0  0  0  0  0  0  0  0  0  0  0
    8.2681    2.4381   -6.1915 N   0  0  0  0  0  0  0  0  0  0  0  0
    8.3343    1.3785   -3.2713 H   0  0  0  0  0  0  0  0  0  0  0  0
    9.2431    0.2068   -4.2473 H   0  0  0  0  0  0  0  0  0  0  0  0
   10.0203    1.7196   -3.7137 H   0  0  0  0  0  0  0  0  0  0  0  0
    0.1030   -5.1167   -6.0210 C   0  0  0  0  0  0  0  0  0  0  0  0
   -0.3378   -4.7895   -7.3432 C   0  0  0  0  0  0  0  0  0  0  0  0
   -0.6928   -4.5294   -8.4004 N   0  0  0  0  0  0  0  0  0  0  0  0
    0.7012   -4.2973   -5.6245 H   0  0  0  0  0  0  0  0  0  0  0  0
   -0.7603   -5.2811   -5.3782 H   0  0  0  0  0  0  0  0  0  0  0  0
    0.7075   -6.0222   -6.0529 H   0  0  0  0  0  0  0  0  0  0  0  0
    1.0342    9.3144   -6.0830 C   0  0  0  0  0  0  0  0  0  0  0  0
    0.2637    8.4533   -5.2358 C   0  0  0  0  0  0  0  0  0  0  0  0
   -0.3549    7.7690   -4.5581 N   0  0  0  0  0  0  0  0  0  0  0  0
    0.7329   10.3486   -5.9210 H   0  0  0  0  0  0  0  0  0  0  0  0
    2.0917    9.2029   -5.8472 H   0  0  0  0  0  0  0  0  0  0  0  0
    0.8649    9.0449   -7.1247 H   0  0  0  0  0  0  0  0  0  0  0  0
    3.6005    0.0688   -4.2770 C   0  0  0  0  0  0  0  0  0  0  0  0
    4.4029   -1.0226   -4.7313 C   0  0  0  0  0  0  0  0  0  0  0  0
    5.0270   -1.9033   -5.1154 N   0  0  0  0  0  0  0  0  0  0  0  0
    4.2062    0.9733   -4.2468 H   0  0  0  0  0  0  0  0  0  0  0  0
    2.7529    0.2023   -4.9494 H   0  0  0  0  0  0  0  0  0  0  0  0
    3.2574   -0.1399   -3.2653 H   0  0  0  0  0  0  0  0  0  0  0  0
   -4.5940   -1.5556   -7.9245 C   0  0  0  0  0  0  0  0  0  0  0  0
   -4.5296   -1.6455   -6.4984 C   0  0  0  0  0  0  0  0  0  0  0  0
   -4.4858   -1.7084   -5.3561 N   0  0  0  0  0  0  0  0  0  0  0  0
   -5.3847   -0.8633   -8.2115 H   0  0  0  0  0  0  0  0  0  0  0  0
   -3.6387   -1.1999   -8.3086 H   0  0  0  0  0  0  0  0  0  0  0  0
   -4.8027   -2.5396   -8.3423 H   0  0  0  0  0  0  0  0  0  0  0  0
    3.6734    4.7868   -7.2385 C   0  0  0  0  0  0  0  0  0  0  0  0
    2.5014    4.7770   -8.0603 C   0  0  0  0  0  0  0  0  0  0  0  0
    1.5627    4.7708   -8.7160 N   0  0  0  0  0  0  0  0  0  0  0  0
    3.3857    4.7786   -6.1880 H   0  0  0  0  0  0  0  0  0  0  0  0
    4.2782    3.9061   -7.4496 H   0  0  0  0  0  0  0  0  0  0  0  0
    4.2606    5.6803   -7.4454 H   0  0  0  0  0  0  0  0  0  0  0  0
    2.5415   -0.5670   -9.0950 C   0  0  0  0  0  0  0  0  0  0  0  0
    1.8889   -0.2230   -7.8698 C   0  0  0  0  0  0  0  0  0  0  0  0
    1.3622    0.0557   -6.8916 N   0  0  0  0  0  0  0  0  0  0  0  0
    1.9025   -0.2995   -9.9354 H   0  0  0  0  0  0  0  0  0  0  0  0
    3.4848   -0.0266   -9.1661 H   0  0  0  0  0  0  0  0  0  0  0  0
    2.7385   -1.6381   -9.1112 H   0  0  0  0  0  0  0  0  0  0  0  0
  1  2  1  0  0  0  0
  1  3  4  0  0  0  0
  3  4  1  0  0  0  0
  3  5  4  0  0  0  0
  1  6  4  0  0  0  0
  6  7  1  0  0  0  0
  5  8  4  0  0  0  0
  6  8  4  0  0  0  0
  8  9  1  0  0  0  0
 10 11  1  0  0  0  0
 10 12  4  0  0  0  0
 12 13  1  0  0  0  0
 12 14  4  0  0  0  0
 14 15  1  0  0  0  0
 10 16  4  0  0  0  0
 16 17  1  0  0  0  0
 14 18  4  0  0  0  0
 16 18  4  0  0  0  0
 18 19  1  0  0  0  0
  3 20  1  0  0  0  0
 10 20  1  0  0  0  0
 12 20  1  0  0  0  0
 16 20  1  0  0  0  0
  5 21  1  0  0  0  0
 21 22  1  0  0  0  0
 21 23  1  0  0  0  0
 21 24  1  0  0  0  0
 24 25  1  0  0  0  0
 25 26  1  0  0  0  0
 25 27  1  0  0  0  0
 25 28  1  0  0  0  0
 24 29  1  0  0  0  0
 29 30  1  0  0  0  0
 29 31  1  0  0  0  0
 29 32  1  0  0  0  0
 24 33  1  0  0  0  0
 33 34  1  0  0  0  0
 33 35  1  0  0  0  0
 33 36  1  0  0  0  0
 37 38  1  0  0  0  0
 37 39  1  0  0  0  0
 37 40  1  0  0  0  0
 37 41  1  0  0  0  0
 37 42  1  0  0  0  0
 37 43  1  0  0  0  0
 44 45  1  0  0  0  0
 45 46  1  0  0  0  0
 45 47  1  0  0  0  0
 45 48  1  0  0  0  0
 45 49  1  0  0  0  0
 45 50  1  0  0  0  0
 51 52  1  0  0  0  0
 52 53  3  0  0  0  0
 51 54  1  0  0  0  0
 51 55  1  0  0  0  0
 51 56  1  0  0  0  0
 57 58  1  0  0  0  0
 58 59  3  0  0  0  0
 57 60  1  0  0  0  0
 57 61  1  0  0  0  0
 57 62  1  0  0  0  0
 63 64  1  0  0  0  0
 64 65  3  0  0  0  0
 63 66  1  0  0  0  0
 63 67  1  0  0  0  0
 63 68  1  0  0  0  0
 69 70  1  0  0  0  0
 70 71  3  0  0  0  0
 69 72  1  0  0  0  0
 69 73  1  0  0  0  0
 69 74  1  0  0  0  0
 75 76  1  0  0  0  0
 76 77  3  0  0  0  0
 75 78  1  0  0  0  0
 75 79  1  0  0  0  0
 75 80  1  0  0  0  0
 81 82  1  0  0  0  0
 82 83  3  0  0  0  0
 81 84  1  0  0  0  0
 81 85  1  0  0  0  0
 81 86  1  0  0  0  0
 87 88  1  0  0  0  0
 88 89  3  0  0  0  0
 87 90  1  0  0  0  0
 87 91  1  0  0  0  0
 87 92  1  0  0  0  0
 93 94  1  0  0  0  0
 94 95  3  0  0  0  0
 93 96  1  0  0  0  0
 93 97  1  0  0  0  0
 93 98  1  0  0  0  0
 99100  1  0  0  0  0
100101  3  0  0  0  0
 99102  1  0  0  0  0
 99103  1  0  0  0  0
 99104  1  0  0  0  0
105106  1  0  0  0  0
 20107  1  0  0  0  0
106107  3  0  0  0  0
105108  1  0  0  0  0
105109  1  0  0  0  0
105110  1  0  0  0  0
111112  1  0  0  0  0
112113  3  0  0  0  0
111114  1  0  0  0  0
111115  1  0  0  0  0
111116  1  0  0  0  0
117118  1  0  0  0  0
118119  3  0  0  0  0
117120  1  0  0  0  0
117121  1  0  0  0  0
117122  1  0  0  0  0
123124  1  0  0  0  0
124125  3  0  0  0  0
123126  1  0  0  0  0
123127  1  0  0  0  0
123128  1  0  0  0  0
129130  1  0  0  0  0
130131  3  0  0  0  0
129132  1  0  0  0  0
129133  1  0  0  0  0
129134  1  0  0  0  0
135136  1  0  0  0  0
136137  3  0  0  0  0
135138  1  0  0  0  0
135139  1  0  0  0  0
135140  1  0  0  0  0
141142  1  0  0  0  0
142143  3  0  0  0  0
141144  1  0  0  0  0
141145  1  0  0  0  0
141146  1  0  0  0  0
147148  1  0  0  0  0
148149  3  0  0  0  0
147150  1  0  0  0  0
147151  1  0  0  0  0
147152  1  0  0  0  0
153154  1  0  0  0  0
154155  3  0  0  0  0
153156  1  0  0  0  0
153157  1  0  0  0  0
153158  1  0  0  0  0
159160  1  0  0  0  0
160161  3  0  0  0  0
159162  1  0  0  0  0
159163  1  0  0  0  0
159164  1  0  0  0  0
165166  1  0  0  0  0
166167  3  0  0  0  0
165168  1  0  0  0  0
165169  1  0  0  0  0
165170  1  0  0  0  0
M  END
