 xtb: 6.6.0 (conda-forge)
          02012516283D

141130  0     0  0            999 V2000
   -1.7101    1.0242   -0.6253 C   0  0  0  0  0  0  0  0  0  0  0  0
   -1.8042    2.0856   -0.4689 H   0  0  0  0  0  0  0  0  0  0  0  0
   -1.7802    0.0302    0.3801 C   0  0  0  0  0  0  0  0  0  0  0  0
   -1.9376    0.2051    1.4307 H   0  0  0  0  0  0  0  0  0  0  0  0
   -1.7215   -1.2354   -0.2507 C   0  0  0  0  0  0  0  0  0  0  0  0
   -1.8264   -2.1900    0.2368 H   0  0  0  0  0  0  0  0  0  0  0  0
   -1.6092    0.3730   -1.8783 C   0  0  0  0  0  0  0  0  0  0  0  0
   -1.6137    0.8525   -2.8426 H   0  0  0  0  0  0  0  0  0  0  0  0
   -1.6150   -1.0234   -1.6461 C   0  0  0  0  0  0  0  0  0  0  0  0
   -1.6230   -1.7897   -2.4028 H   0  0  0  0  0  0  0  0  0  0  0  0
    2.0179    0.4474   -1.5887 C   0  0  0  0  0  0  0  0  0  0  0  0
    2.1553    0.9588   -2.5268 H   0  0  0  0  0  0  0  0  0  0  0  0
    1.9182    1.0585   -0.3153 C   0  0  0  0  0  0  0  0  0  0  0  0
    1.9617    2.1171   -0.1201 H   0  0  0  0  0  0  0  0  0  0  0  0
    1.8596    0.0326    0.6589 C   0  0  0  0  0  0  0  0  0  0  0  0
    1.8532    0.1701    1.7272 H   0  0  0  0  0  0  0  0  0  0  0  0
    2.0204   -0.9559   -1.4011 C   0  0  0  0  0  0  0  0  0  0  0  0
    2.1590   -1.6942   -2.1727 H   0  0  0  0  0  0  0  0  0  0  0  0
    1.9214   -1.2126   -0.0121 C   0  0  0  0  0  0  0  0  0  0  0  0
    1.9736   -2.1800    0.4593 H   0  0  0  0  0  0  0  0  0  0  0  0
    0.1305   -0.1473   -0.6660 Fe  0  0  0  0  0  0  0  0  0  0  0  0
    2.5897    0.4395    7.1807 C   0  0  0  0  0  0  0  0  0  0  0  0
    2.2391   -0.6868    7.9928 C   0  0  0  0  0  0  0  0  0  0  0  0
    1.9590   -1.5876    8.6421 N   0  0  0  0  0  0  0  0  0  0  0  0
    2.6136    1.3370    7.7974 H   0  0  0  0  0  0  0  0  0  0  0  0
    3.5732    0.2763    6.7424 H   0  0  0  0  0  0  0  0  0  0  0  0
    1.8527    0.5610    6.3883 H   0  0  0  0  0  0  0  0  0  0  0  0
   -1.6149   -4.3830    6.0662 C   0  0  0  0  0  0  0  0  0  0  0  0
   -1.0161   -3.4764    5.1331 C   0  0  0  0  0  0  0  0  0  0  0  0
   -0.5410   -2.7521    4.3847 N   0  0  0  0  0  0  0  0  0  0  0  0
   -1.1834   -4.2279    7.0542 H   0  0  0  0  0  0  0  0  0  0  0  0
   -2.6885   -4.2029    6.1078 H   0  0  0  0  0  0  0  0  0  0  0  0
   -1.4312   -5.4077    5.7463 H   0  0  0  0  0  0  0  0  0  0  0  0
    0.0565    6.1869    4.3295 C   0  0  0  0  0  0  0  0  0  0  0  0
   -0.0224    4.8262    3.8941 C   0  0  0  0  0  0  0  0  0  0  0  0
   -0.0868    3.7369    3.5469 N   0  0  0  0  0  0  0  0  0  0  0  0
    0.8071    6.2762    5.1140 H   0  0  0  0  0  0  0  0  0  0  0  0
    0.3354    6.8199    3.4881 H   0  0  0  0  0  0  0  0  0  0  0  0
   -0.9119    6.5043    4.7138 H   0  0  0  0  0  0  0  0  0  0  0  0
    3.4981   -6.0360    5.6869 C   0  0  0  0  0  0  0  0  0  0  0  0
    3.7920   -5.2848    4.5033 C   0  0  0  0  0  0  0  0  0  0  0  0
    4.0269   -4.6860    3.5562 N   0  0  0  0  0  0  0  0  0  0  0  0
    4.4023   -6.5332    6.0362 H   0  0  0  0  0  0  0  0  0  0  0  0
    3.1327   -5.3634    6.4618 H   0  0  0  0  0  0  0  0  0  0  0  0
    2.7372   -6.7828    5.4635 H   0  0  0  0  0  0  0  0  0  0  0  0
   -3.9443    1.1769    5.8295 C   0  0  0  0  0  0  0  0  0  0  0  0
   -4.6549    0.1189    5.1758 C   0  0  0  0  0  0  0  0  0  0  0  0
   -5.2183   -0.7260    4.6469 N   0  0  0  0  0  0  0  0  0  0  0  0
   -2.8858    0.9243    5.8808 H   0  0  0  0  0  0  0  0  0  0  0  0
   -4.0701    2.1008    5.2663 H   0  0  0  0  0  0  0  0  0  0  0  0
   -4.3358    1.3097    6.8374 H   0  0  0  0  0  0  0  0  0  0  0  0
    5.4577    3.9602    3.5784 C   0  0  0  0  0  0  0  0  0  0  0  0
    5.1612    4.3767    4.9162 C   0  0  0  0  0  0  0  0  0  0  0  0
    4.9204    4.7059    5.9863 N   0  0  0  0  0  0  0  0  0  0  0  0
    4.5281    3.7840    3.0396 H   0  0  0  0  0  0  0  0  0  0  0  0
    6.0271    4.7394    3.0738 H   0  0  0  0  0  0  0  0  0  0  0  0
    6.0457    3.0438    3.6042 H   0  0  0  0  0  0  0  0  0  0  0  0
   -2.6954  -10.1980    2.4571 C   0  0  0  0  0  0  0  0  0  0  0  0
   -1.5352   -9.6689    3.1097 C   0  0  0  0  0  0  0  0  0  0  0  0
   -0.6069   -9.2432    3.6274 N   0  0  0  0  0  0  0  0  0  0  0  0
   -3.5055  -10.2947    3.1790 H   0  0  0  0  0  0  0  0  0  0  0  0
   -2.9997   -9.5242    1.6571 H   0  0  0  0  0  0  0  0  0  0  0  0
   -2.4628  -11.1773    2.0406 H   0  0  0  0  0  0  0  0  0  0  0  0
   -4.4267   10.8132    0.7240 C   0  0  0  0  0  0  0  0  0  0  0  0
   -3.9473    9.5931    1.3022 C   0  0  0  0  0  0  0  0  0  0  0  0
   -3.5607    8.6186    1.7621 N   0  0  0  0  0  0  0  0  0  0  0  0
   -5.2188   11.2246    1.3485 H   0  0  0  0  0  0  0  0  0  0  0  0
   -3.6085   11.5292    0.6576 H   0  0  0  0  0  0  0  0  0  0  0  0
   -4.8172   10.6131   -0.2730 H   0  0  0  0  0  0  0  0  0  0  0  0
    6.9340   -2.7609   -0.0557 C   0  0  0  0  0  0  0  0  0  0  0  0
    7.9520   -2.6925   -1.0606 C   0  0  0  0  0  0  0  0  0  0  0  0
    8.7641   -2.6359   -1.8661 N   0  0  0  0  0  0  0  0  0  0  0  0
    6.5360   -1.7634    0.1239 H   0  0  0  0  0  0  0  0  0  0  0  0
    6.1354   -3.4208   -0.3912 H   0  0  0  0  0  0  0  0  0  0  0  0
    7.3615   -3.1518    0.8666 H   0  0  0  0  0  0  0  0  0  0  0  0
   -7.4542   -3.4631    0.9284 C   0  0  0  0  0  0  0  0  0  0  0  0
   -7.7745   -3.3917   -0.4656 C   0  0  0  0  0  0  0  0  0  0  0  0
   -8.0299   -3.3345   -1.5805 N   0  0  0  0  0  0  0  0  0  0  0  0
   -6.3944   -3.6841    1.0474 H   0  0  0  0  0  0  0  0  0  0  0  0
   -7.6808   -2.5095    1.4030 H   0  0  0  0  0  0  0  0  0  0  0  0
   -8.0448   -4.2499    1.3960 H   0  0  0  0  0  0  0  0  0  0  0  0
    4.8327    6.0949   -1.7711 C   0  0  0  0  0  0  0  0  0  0  0  0
    3.9620    6.5987   -0.7522 C   0  0  0  0  0  0  0  0  0  0  0  0
    3.2648    6.9958    0.0649 N   0  0  0  0  0  0  0  0  0  0  0  0
    5.8339    6.4990   -1.6275 H   0  0  0  0  0  0  0  0  0  0  0  0
    4.8694    5.0083   -1.7127 H   0  0  0  0  0  0  0  0  0  0  0  0
    4.4579    6.3905   -2.7501 H   0  0  0  0  0  0  0  0  0  0  0  0
    1.8849   -7.7398   -0.5179 C   0  0  0  0  0  0  0  0  0  0  0  0
    2.3766   -6.7353   -1.4121 C   0  0  0  0  0  0  0  0  0  0  0  0
    2.7649   -5.9291   -2.1262 N   0  0  0  0  0  0  0  0  0  0  0  0
    2.2944   -7.5724    0.4774 H   0  0  0  0  0  0  0  0  0  0  0  0
    0.7980   -7.6851   -0.4759 H   0  0  0  0  0  0  0  0  0  0  0  0
    2.1868   -8.7242   -0.8734 H   0  0  0  0  0  0  0  0  0  0  0  0
   -8.3165    6.8984   -4.3702 C   0  0  0  0  0  0  0  0  0  0  0  0
   -7.0803    7.5124   -3.9860 C   0  0  0  0  0  0  0  0  0  0  0  0
   -6.0918    8.0003   -3.6769 N   0  0  0  0  0  0  0  0  0  0  0  0
   -9.0421    7.0073   -3.5650 H   0  0  0  0  0  0  0  0  0  0  0  0
   -8.6972    7.3811   -5.2695 H   0  0  0  0  0  0  0  0  0  0  0  0
   -8.1494    5.8404   -4.5681 H   0  0  0  0  0  0  0  0  0  0  0  0
    9.6116    2.2165   -2.4462 C   0  0  0  0  0  0  0  0  0  0  0  0
    8.8043    2.3403   -1.2703 C   0  0  0  0  0  0  0  0  0  0  0  0
    8.1558    2.4409   -0.3320 N   0  0  0  0  0  0  0  0  0  0  0  0
   10.4167    1.5065   -2.2611 H   0  0  0  0  0  0  0  0  0  0  0  0
    8.9963    1.8580   -3.2705 H   0  0  0  0  0  0  0  0  0  0  0  0
   10.0341    3.1872   -2.7027 H   0  0  0  0  0  0  0  0  0  0  0  0
   -4.3529   -5.7965   -3.7752 C   0  0  0  0  0  0  0  0  0  0  0  0
   -3.8223   -6.0288   -2.4663 C   0  0  0  0  0  0  0  0  0  0  0  0
   -3.3961   -6.2103   -1.4190 N   0  0  0  0  0  0  0  0  0  0  0  0
   -5.3207   -6.2877   -3.8673 H   0  0  0  0  0  0  0  0  0  0  0  0
   -4.4779   -4.7261   -3.9321 H   0  0  0  0  0  0  0  0  0  0  0  0
   -3.6698   -6.1956   -4.5239 H   0  0  0  0  0  0  0  0  0  0  0  0
   -1.1245    7.1431   -2.8633 C   0  0  0  0  0  0  0  0  0  0  0  0
   -0.4432    5.9136   -3.1338 C   0  0  0  0  0  0  0  0  0  0  0  0
    0.0990    4.9280   -3.3477 N   0  0  0  0  0  0  0  0  0  0  0  0
   -1.9270    6.9635   -2.1491 H   0  0  0  0  0  0  0  0  0  0  0  0
   -0.4231    7.8634   -2.4439 H   0  0  0  0  0  0  0  0  0  0  0  0
   -1.5455    7.5390   -3.7866 H   0  0  0  0  0  0  0  0  0  0  0  0
    5.4850   -2.7335   -5.7454 C   0  0  0  0  0  0  0  0  0  0  0  0
    5.2453   -2.4511   -7.1287 C   0  0  0  0  0  0  0  0  0  0  0  0
    5.0516   -2.2257   -8.2347 N   0  0  0  0  0  0  0  0  0  0  0  0
    5.5472   -1.7989   -5.1901 H   0  0  0  0  0  0  0  0  0  0  0  0
    4.6704   -3.3401   -5.3526 H   0  0  0  0  0  0  0  0  0  0  0  0
    6.4235   -3.2773   -5.6449 H   0  0  0  0  0  0  0  0  0  0  0  0
   -7.4673   -3.5774   -9.1344 C   0  0  0  0  0  0  0  0  0  0  0  0
   -6.1235   -3.6334   -8.6409 C   0  0  0  0  0  0  0  0  0  0  0  0
   -5.0504   -3.6770   -8.2446 N   0  0  0  0  0  0  0  0  0  0  0  0
   -8.1558   -3.8785   -8.3457 H   0  0  0  0  0  0  0  0  0  0  0  0
   -7.6972   -2.5597   -9.4476 H   0  0  0  0  0  0  0  0  0  0  0  0
   -7.5711   -4.2508   -9.9844 H   0  0  0  0  0  0  0  0  0  0  0  0
    3.2839    2.7899   -7.3068 C   0  0  0  0  0  0  0  0  0  0  0  0
    4.3285    2.7491   -6.3280 C   0  0  0  0  0  0  0  0  0  0  0  0
    5.1581    2.7165   -5.5396 N   0  0  0  0  0  0  0  0  0  0  0  0
    2.3225    2.8939   -6.8055 H   0  0  0  0  0  0  0  0  0  0  0  0
    3.4423    3.6382   -7.9715 H   0  0  0  0  0  0  0  0  0  0  0  0
    3.2948    1.8681   -7.8867 H   0  0  0  0  0  0  0  0  0  0  0  0
   -0.1634   -2.3780   -8.5121 C   0  0  0  0  0  0  0  0  0  0  0  0
    0.1643   -1.7718   -7.2571 C   0  0  0  0  0  0  0  0  0  0  0  0
    0.4217   -1.2880   -6.2519 N   0  0  0  0  0  0  0  0  0  0  0  0
   -0.5130   -3.3957   -8.3432 H   0  0  0  0  0  0  0  0  0  0  0  0
   -0.9501   -1.8034   -8.9993 H   0  0  0  0  0  0  0  0  0  0  0  0
    0.7199   -2.3996   -9.1491 H   0  0  0  0  0  0  0  0  0  0  0  0
  1  2  1  0  0  0  0
  1  3  4  0  0  0  0
  3  4  1  0  0  0  0
  3  5  4  0  0  0  0
  5  6  1  0  0  0  0
  1  7  4  0  0  0  0
  7  8  1  0  0  0  0
  5  9  4  0  0  0  0
  7  9  4  0  0  0  0
  9 10  1  0  0  0  0
 11 12  1  0  0  0  0
 11 13  4  0  0  0  0
 13 14  1  0  0  0  0
 13 15  4  0  0  0  0
 15 16  1  0  0  0  0
 11 17  4  0  0  0  0
 17 18  1  0  0  0  0
 15 19  4  0  0  0  0
 17 19  4  0  0  0  0
 19 20  1  0  0  0  0
  1 21  1  0  0  0  0
  3 21  1  0  0  0  0
  5 21  1  0  0  0  0
  7 21  1  0  0  0  0
  9 21  1  0  0  0  0
 11 21  1  0  0  0  0
 13 21  1  0  0  0  0
 15 21  1  0  0  0  0
 17 21  1  0  0  0  0
 19 21  1  0  0  0  0
 22 23  1  0  0  0  0
 23 24  3  0  0  0  0
 22 25  1  0  0  0  0
 22 26  1  0  0  0  0
 22 27  1  0  0  0  0
 28 29  1  0  0  0  0
 29 30  3  0  0  0  0
 28 31  1  0  0  0  0
 28 32  1  0  0  0  0
 28 33  1  0  0  0  0
 34 35  1  0  0  0  0
 35 36  3  0  0  0  0
 34 37  1  0  0  0  0
 34 38  1  0  0  0  0
 34 39  1  0  0  0  0
 40 41  1  0  0  0  0
 41 42  3  0  0  0  0
 40 43  1  0  0  0  0
 40 44  1  0  0  0  0
 40 45  1  0  0  0  0
 46 47  1  0  0  0  0
 47 48  3  0  0  0  0
 46 49  1  0  0  0  0
 46 50  1  0  0  0  0
 46 51  1  0  0  0  0
 52 53  1  0  0  0  0
 53 54  3  0  0  0  0
 52 55  1  0  0  0  0
 52 56  1  0  0  0  0
 52 57  1  0  0  0  0
 58 59  1  0  0  0  0
 59 60  3  0  0  0  0
 58 61  1  0  0  0  0
 58 62  1  0  0  0  0
 58 63  1  0  0  0  0
 64 65  1  0  0  0  0
 65 66  3  0  0  0  0
 64 67  1  0  0  0  0
 64 68  1  0  0  0  0
 64 69  1  0  0  0  0
 70 71  1  0  0  0  0
 71 72  3  0  0  0  0
 70 73  1  0  0  0  0
 70 74  1  0  0  0  0
 70 75  1  0  0  0  0
 76 77  1  0  0  0  0
 77 78  3  0  0  0  0
 76 79  1  0  0  0  0
 76 80  1  0  0  0  0
 76 81  1  0  0  0  0
 82 83  1  0  0  0  0
 83 84  3  0  0  0  0
 82 85  1  0  0  0  0
 82 86  1  0  0  0  0
 82 87  1  0  0  0  0
 88 89  1  0  0  0  0
 89 90  3  0  0  0  0
 88 91  1  0  0  0  0
 88 92  1  0  0  0  0
 88 93  1  0  0  0  0
 94 95  1  0  0  0  0
 95 96  3  0  0  0  0
 94 97  1  0  0  0  0
 94 98  1  0  0  0  0
 94 99  1  0  0  0  0
100101  1  0  0  0  0
101102  3  0  0  0  0
100103  1  0  0  0  0
100104  1  0  0  0  0
100105  1  0  0  0  0
106107  1  0  0  0  0
107108  3  0  0  0  0
106109  1  0  0  0  0
106110  1  0  0  0  0
106111  1  0  0  0  0
112113  1  0  0  0  0
113114  3  0  0  0  0
112115  1  0  0  0  0
112116  1  0  0  0  0
112117  1  0  0  0  0
118119  1  0  0  0  0
119120  3  0  0  0  0
118121  1  0  0  0  0
118122  1  0  0  0  0
118123  1  0  0  0  0
124125  1  0  0  0  0
125126  3  0  0  0  0
124127  1  0  0  0  0
124128  1  0  0  0  0
124129  1  0  0  0  0
130131  1  0  0  0  0
131132  3  0  0  0  0
130133  1  0  0  0  0
130134  1  0  0  0  0
130135  1  0  0  0  0
136137  1  0  0  0  0
137138  3  0  0  0  0
136139  1  0  0  0  0
136140  1  0  0  0  0
136141  1  0  0  0  0
M  CHG  1   1   1
M  END
