163
Solvated system with counter ions
C  3.372470  1.237080  -0.658920
H  4.451190  1.250210  -0.610870
C  2.477280  1.663660  0.368360
H  2.757450  2.056180  1.335540
C  1.135350  1.473680  -0.096570
C  2.583700  0.797290  -1.762430
H  2.959370  0.384210  -2.687160
C  1.216850  0.931630  -1.416440
H  0.378570  0.583840  -1.998280
C  3.416030  -1.837490  0.732220
H  4.488140  -1.746040  0.828410
C  2.440210  -1.443650  1.703110
H  2.647970  -1.010490  2.670670
C  1.147680  -1.734010  1.167040
H  0.186680  -1.525900  1.613820
C  2.715750  -2.370650  -0.391040
H  3.166950  -2.722530  -1.307740
C  1.324780  -2.309860  -0.118660
H  0.513910  -2.572560  -0.780140
Fe  2.195010  -0.353980  -0.023720
C  -0.092970  1.696270  0.734560
H  0.197020  1.927340  1.761650
H  -0.717930  0.808010  0.741650
N  -0.998200  2.843950  0.293130
C  -1.472420  2.661410  -1.127730
H  -0.628060  2.796800  -1.801050
H  -1.905810  1.667270  -1.220640
H  -2.224090  3.424830  -1.329910
C  -0.287190  4.156110  0.424290
H  -0.955230  4.954330  0.099630
H  -0.009380  4.308120  1.468150
H  0.604770  4.142100  -0.202810
C  -2.206290  2.816790  1.202920
H  -1.868670  2.916140  2.235100
H  -2.851980  3.655000  0.939940
H  -2.723200  1.869220  1.051850
P  -2.435030  -1.259460  -0.136070
F  -2.987030  -1.698380  -1.552810
F  -1.089290  -0.596540  -0.885650
F  -1.605080  -2.627820  0.035860
F  -1.783620  -0.722710  1.295970
F  -3.684430  -1.832440  0.637450
F  -3.145270  0.210340  -0.282620
C  2.573041  0.679210  8.610162
C  4.034545  0.655529  8.635544
N  5.194465  0.636735  8.655689
H  2.166484  0.673649  9.625841
H  2.207572  1.576905  8.102718
H  2.179242  -0.194032  8.081681
C  -3.733106  -2.523319  7.710162
C  -2.271603  -2.547000  7.735544
N  -1.111682  -2.565795  7.755689
H  -4.139663  -2.528880  8.725841
H  -4.098575  -1.625624  7.202718
H  -4.126905  -3.396562  7.181681
C  0.283232  6.609357  6.810162
C  1.744736  6.585676  6.835544
N  2.904656  6.566881  6.855689
H  -0.123325  6.603796  7.825841
H  -0.082237  7.507052  6.302718
H  -0.110567  5.736114  6.281681
C  3.924153  -4.748549  5.910162
C  5.385657  -4.772230  5.935544
N  6.545578  -4.791025  5.955689
H  3.517597  -4.754110  6.925841
H  3.558685  -3.850854  5.402718
H  3.530355  -5.621792  5.381681
C  -7.638789  1.988446  5.010162
C  -6.177285  1.964764  5.035544
N  -5.017365  1.945970  5.055689
H  -8.045346  1.982885  6.025841
H  -8.004258  2.886140  4.502718
H  -8.032588  1.115203  4.481681
C  6.544270  4.993032  4.110162
C  8.005774  4.969350  4.135544
N  9.165694  4.950556  4.155689
H  6.137713  4.987470  5.125841
H  6.178801  5.890726  3.602718
H  6.150471  4.119789  3.581681
C  -2.425866  -7.462489  3.210162
C  -0.964363  -7.486171  3.235544
N  0.195558  -7.504965  3.255689
H  -2.832423  -7.468051  4.225841
H  -2.791335  -6.564795  2.702718
H  -2.819665  -8.335732  2.681681
C  -4.253650  8.412625  2.310162
C  -2.792146  8.388943  2.335544
N  -1.632226  8.370149  2.355689
H  -4.660207  8.407063  3.325841
H  -4.619119  9.310319  1.802718
H  -4.647449  7.539382  1.781681
C  8.121036  -2.373207  1.410162
C  9.582540  -2.396888  1.435544
N  10.742461  -2.415683  1.455689
H  7.714479  -2.378768  2.425841
H  7.755567  -1.475513  0.902718
H  7.727237  -3.246450  0.881681
C  -8.545913  -2.750502  0.510162
C  -7.084409  -2.774184  0.535544
N  -5.924488  -2.792978  0.555689
H  -8.952470  -2.756063  1.525841
H  -8.911382  -1.852808  0.002718
H  -8.939712  -3.623745  -0.018319
C  3.572635  8.820623  -0.389838
C  5.034138  8.796942  -0.364456
N  6.194059  8.778147  -0.344311
H  3.166078  8.815062  0.625841
H  3.207166  9.718317  -0.897282
H  3.178836  7.947380  -0.918319
C  2.425872  -7.811108  -1.289838
C  3.887376  -7.834789  -1.264456
N  5.047296  -7.853584  -1.244311
H  2.019315  -7.816669  -0.274159
H  2.060403  -6.913413  -1.797282
H  2.032073  -8.684351  -1.818319
C  -7.776842  5.048583  -2.189838
C  -6.315339  5.024901  -2.164456
N  -5.155418  5.006107  -2.144311
H  -8.183399  5.043021  -1.174159
H  -8.142311  5.946277  -2.697282
H  -8.170641  4.175340  -2.718319
C  7.996899  2.489456  -3.089838
C  9.458402  2.465774  -3.064456
N  10.618323  2.446980  -3.044311
H  7.590342  2.483894  -2.074159
H  7.631430  3.387150  -3.597282
H  7.603100  1.616213  -3.618319
C  -4.859671  -5.895768  -3.989838
C  -3.398167  -5.919449  -3.964456
N  -2.238247  -5.938243  -3.944311
H  -5.266228  -5.901329  -2.974159
H  -5.225140  -4.998073  -4.497282
H  -5.253470  -6.769010  -4.518319
C  -1.203156  8.133367  -4.889838
C  0.258347  8.109685  -4.864456
N  1.418268  8.090891  -4.844311
H  -1.609713  8.127805  -3.874159
H  -1.568625  9.031061  -5.397282
H  -1.596955  7.260124  -5.418319
C  4.992538  -3.728425  -5.789838
C  6.454042  -3.752107  -5.764456
N  7.613963  -3.770901  -5.744311
H  4.585981  -3.733987  -4.774159
H  4.627069  -2.830731  -6.297282
H  4.598739  -4.601668  -6.318319
C  -6.185065  0.433248  -6.689838
C  -4.723561  0.409566  -6.664456
N  -3.563641  0.390772  -6.644311
H  -6.591622  0.427687  -5.674159
H  -6.550534  1.330942  -7.197282
H  -6.578864  -0.439995  -7.218319
C  3.123384  4.023448  -7.589838
C  4.584887  3.999766  -7.564456
N  5.744808  3.980972  -7.544311
H  2.716827  4.017887  -6.574159
H  2.757915  4.921142  -8.097282
H  2.729585  3.150205  -8.118319
C  -0.367018  -2.128039  -8.489838
C  1.094486  -2.151720  -8.464456
N  2.254407  -2.170515  -8.444311
H  -0.773574  -2.133600  -7.474159
H  -0.732486  -1.230345  -8.997282
H  -0.760816  -3.001282  -9.018319
