8

C -0.935652762605474 -0.06557826479299335 -0.2200797230572366
C 0.4925773211240834 0.28168340191068725 0.04094171673461254
O 1.0236634336562915 1.3618445073381344 -0.15029239844170914
O 1.1913641884155721 -0.7569067144671068 0.5349840005786213
H -1.4538841677003196 0.811147434164077 -0.6187285086866419
H -1.4208542802554494 -0.3637357415575437 0.7125498823438495
H -0.9925450854670335 -0.8699597389585313 -0.9575421076259122
H 2.0953313528323534 -0.398494883636739 0.6581671381544089
