10

C -1.2650171444183982 0.24915614763923796 0.08512329099618901
C 0.07298916262004376 0.15546104493198865 -0.5969914025239498
O 0.21751775379854912 0.4632975485692045 -1.779109127213321
C 1.2255177288621977 -0.33328824244333355 0.23794760993537775
H -2.0148425587686014 0.6142139382564104 -0.6221855870490284
H -1.2006590770274932 0.9471112422468886 0.923475776856914
H -1.5654977314015526 -0.7398879161225823 0.43955454392700527
H 1.0146575728070757 -1.3432904884456622 0.5978808100291563
H 2.1358436501931637 -0.35648574764636975 -0.3674928791359148
H 1.379490643335023 0.34371247301424673 1.0817969641776108
