16

C 2.6914426210050593 0.11912653770589567 -0.11176096406161899
O 1.6543916920118888 -0.8299188634638812 -0.32434581778306026
C 0.37148653873846466 -0.39585919762502775 -0.13213582637772023
C -0.6118432279774659 -1.3641152672556154 -0.3530598247225504
C -1.9638319669488298 -1.0558070490602556 -0.1927063841573082
C -2.3413071317256366 0.2284378810422194 0.19122002217066494
C -1.3666739976612088 1.1998694034867412 0.41351086067525056
C -0.012260805528937118 0.889817040564293 0.25253354735488487
H 3.645968416705336 -0.38002135457423525 -0.304638425196858
H 2.607955863376159 0.9585187231906502 -0.8100099426188048
H 2.70181030309546 0.46698528665252464 0.9265017287387247
H -0.32033412247995624 -2.367640581853013 -0.6528777843900606
H -2.7183095694081523 -1.8178914753235755 -0.36763890668475574
H -3.392864823101093 0.4722922016597456 0.31708910648052513
H -1.6604236988752834 2.20264540246235 0.7132369905388212
H 0.7147939087742957 1.673561312391208 0.4350816200338877
