15

C -1.5010435885452476 0.9825015407154727 -0.11934005270428824
C -0.8076633482786879 -0.08191945858337482 0.7166736700077737
C 0.16896401812243642 -0.9460493983589254 -0.0863123231823913
C 1.3516003722688954 -0.1814627063431876 -0.6720153655379594
O 2.0870246153768734 0.4777842989045823 0.3486109526221004
H -2.0053776906109446 0.5374901723966299 -0.9828459238355371
H -2.2542466201204476 1.5010367675324832 0.48260621023423905
H -0.7921054835000073 1.7332310221480474 -0.4805267782300592
H -1.572552166335796 -0.7371571262002626 1.1506236112814519
H -0.2901753390778181 0.39449817734951825 1.5571451498904443
H 0.5527783728654438 -1.7230586736115374 0.5864438800218554
H -0.36737447181770605 -1.4566344509510656 -0.8945644226966294
H 2.027255568974219 -0.8691112893167054 -1.191126271458917
H 1.0231496561994542 0.568012026975588 -1.397676384393133
H 2.3797661044792666 -0.1991609026573295 0.9823040479810108
