15

C 2.293169716582419 0.7704160738365525 0.1739514755779273
C 1.2341054155162003 -0.3033368386879827 0.023041765677520084
O -0.046620631922483675 0.3225760884426894 0.029714177392119786
C -1.0994434658809205 -0.6284397265146603 -0.1088658961314616
C -2.420939097739118 0.11366279794907178 -0.09251930350372785
H 3.2953850757155543 0.332844852387197 0.17386797517506355
H 2.1496279893665466 1.3251401638975204 1.1071095358627567
H 2.2245641670843863 1.497103083266247 -0.6423364199482622
H 1.3791741308772698 -0.8392917009755309 -0.9213507377181305
H 1.3031315170530455 -1.01381503274067 0.854080863275477
H -1.0637046551362372 -1.3435564050218645 0.7202904329222394
H -0.987660240267176 -1.1690298612073176 -1.0551408926129422
H -3.2596119357452564 -0.5803727025184019 -0.19666256501898846
H -2.4631242028965517 0.8440309729406167 -0.9073123992588561
H -2.538053782607647 0.6720682349465342 0.8421319883092295
