12

C 1.2790282929376504 -0.2571479603561064 -0.4291719876568084
N -0.008428354946829598 0.10952291789170297 0.12784022067569692
C -1.1195048108802839 -0.7961452932741735 -0.07972676356832425
C -0.19598477553022525 1.358634614557314 0.6823412682345147
O 0.656631156465604 2.2288863271463875 0.8008673884563087
H 1.5596449669639483 -1.2457452102598212 -0.054697697186549384
H 1.1932344555390206 -0.28906177688281276 -1.519237574031081
H 2.055560870176834 0.4616090862282307 -0.15439052782601817
H -2.023282892098742 -0.431159041225532 0.4159193011292216
H -0.8591258101131846 -1.7783311090708476 0.3246024871727738
H -1.3107386188768708 -0.8790705955302763 -1.153502748818971
H -1.227034479636949 1.518008040775881 1.0391566334192321
