10

C -1.3241159874163 -0.07880449076882931 -0.2950893109616623
S -0.08983163747348526 -0.2788913579978424 1.0123622773792769
O 0.1867515587716316 -1.7466827839414432 1.150776827337433
C 1.2805380342577408 0.4474710120203177 0.08101507684803588
H -2.2701013787891378 -0.5013062859744455 0.05169678080393083
H -1.4598146878236766 0.9839300840139134 -0.5088005359601256
H -1.0012815498795484 -0.6047282262919075 -1.1967494767004687
H 1.440660800958802 -0.11132896842193217 -0.84413987398754
H 2.183098346627456 0.39846999497253205 0.6947257873778746
H 1.054096500766527 1.4918710223896596 -0.14579755213683157
