13

C 0.694912344941347 -0.730017556715877 0.32894909743540135
C -0.7483927918059085 -0.7435871173390025 -0.10499228017070446
C -1.1305634489626928 0.7135542736911478 0.0385069019924749
O 0.0536902368115708 1.4794013364990666 -0.2248398233205899
C 1.1778000179354966 0.5880115018290147 -0.2363177905147795
H 0.7526534548152736 -0.7111515269315237 1.423716406745428
H 1.2714869776408004 -1.586226886073654 -0.030443668612429992
H -0.8164377458644936 -1.046361858035065 -1.1566113409080903
H -1.3802807343608936 -1.4114948193369754 0.4860346607119192
H -1.453983727473804 0.9397928721526599 1.0601570573940315
H -1.9239120770564944 1.0107028216823157 -0.6530003345247156
H 1.5054198482365249 0.4774121017461278 -1.2755419803125925
H 1.9976076451432772 1.0199648568318247 0.3443830940846719
