  53

 C         -2.6547700000        3.0407500000        0.6827700000
 H         -3.4423300000        3.7766000000        0.7458600000
 C         -1.9126700000        2.7090400000       -0.4857200000
 H         -2.0369000000        3.1433600000       -1.4676500000
 C         -0.9954900000        1.6564100000       -0.1484500000
 C         -2.1921100000        2.2133700000        1.7503200000
 H         -2.5750200000        2.2113800000        2.7598500000
 C         -1.1757600000        1.3537400000        1.2466800000
 H         -0.6689000000        0.5698600000        1.7853400000
 C         -4.8725500000        0.6599400000       -0.0989400000
 H         -5.6702900000        1.3854400000       -0.0365700000
 C         -4.1209200000        0.3344200000       -1.2684100000
 H         -4.2532800000        0.7714600000       -2.2473900000
 C         -3.1588300000       -0.6571700000       -0.9107800000
 H         -2.4157700000       -1.1105200000       -1.5490700000
 C         -4.3701200000       -0.1330600000        0.9773900000
 H         -4.7189600000       -0.1047700000        1.9992300000
 C         -3.3106400000       -0.9452500000        0.4754000000
 H         -2.6950200000       -1.6381800000        1.0272700000
 Fe        -2.8852600000        1.0491700000        0.2065400000
 C         -0.1581900000        0.9052100000       -1.1187900000
 H         -0.4946600000        1.0993700000       -2.1397800000
 H         -0.2029500000       -0.1609800000       -0.9318200000
 N          1.3469400000        1.2481500000       -1.1179700000
 C          1.9145000000        0.9799900000        0.2896300000
 H          1.4349000000        1.7186000000        0.9314400000
 H          1.5498400000       -0.0097500000        0.5560000000
 C          1.5452800000        2.6733100000       -1.5075000000
 H          2.6096400000        2.9045400000       -1.4951500000
 H          1.1438900000        2.8201700000       -2.5115300000
 H          1.0070500000        3.3073700000       -0.8026900000
 C          1.9971000000        0.3445800000       -2.1258800000
 H          1.5224900000        0.5170000000       -3.0928300000
 H          3.0586500000        0.5797200000       -2.1815100000
 H          1.8496000000       -0.6868200000       -1.8077500000
 P          0.3097500000       -2.8434100000        0.0898600000
 F         -0.2717000000       -2.1479100000       -1.2835200000
 F          1.7845700000       -2.1950700000       -0.2869900000
 F          0.6670700000       -4.1608000000       -0.7274100000
 F          0.9148300000       -3.4432200000        1.4362200000
 F         -1.1607200000       -3.3766200000        0.4392200000
 F         -0.0333400000       -1.4336000000        0.8835800000
 C          3.4126800000        1.0556700000        0.3840400000
 C          4.1765700000       -0.1114800000        0.2601900000
 C          4.0574600000        2.2694200000        0.6469800000
 C          5.5632500000       -0.0522600000        0.3657200000
 H          3.6755000000       -1.0588200000        0.0961600000
 C          5.4442600000        2.3266200000        0.7503600000
 H          3.4691900000        3.1710600000        0.7910700000
 C          6.1992800000        1.1647600000        0.6035700000
 H          6.1463600000       -0.9619200000        0.2718900000
 H          5.9326400000        3.2727000000        0.9575200000
 H          7.2799500000        1.2059200000        0.6886900000
