163
Solvated system with counter ions
C  -3.535580  0.975050  0.778390
H  -4.614830  0.952510  0.758780
C  -2.692390  1.504720  -0.238600
H  -3.014280  1.952320  -1.168310
C  -1.327890  1.298810  0.161160
C  -2.704430  0.457610  1.817500
H  -3.048070  -0.030700  2.717050
C  -1.344140  0.646400  1.443990
H  -0.473820  0.307470  1.981810
C  -3.392910  -2.000380  -0.747790
H  -4.471590  -2.024270  -0.797990
C  -2.515760  -1.468820  -1.741230
H  -2.817550  -1.021140  -2.676900
C  -1.176270  -1.622180  -1.273120
H  -0.268560  -1.308200  -1.765870
C  -2.589820  -2.480000  0.331480
H  -2.958510  -2.923890  1.244560
C  -1.221300  -2.244290  0.006590
H  -0.354420  -2.456260  0.612360
Fe  -2.273560  -0.477010  0.039370
C  -0.137550  1.552430  -0.688380
H  -0.434150  1.715870  -1.726960
H  0.561640  0.726710  -0.645350
N  0.695970  2.797540  -0.308390
C  1.211890  2.676700  1.099580
H  0.361950  2.655960  1.778760
H  1.787760  1.756600  1.175360
H  1.840100  3.545000  1.305310
C  -0.135480  4.029390  -0.439200
H  0.460110  4.897240  -0.151760
H  -0.460220  4.128670  -1.476160
H  -1.006040  3.933190  0.209620
C  1.869650  2.850840  -1.245920
H  1.496000  2.919790  -2.268420
H  2.467750  3.731970  -1.007560
H  2.455790  1.941680  -1.110790
P  2.704780  -1.040590  0.129270
F  1.976310  -2.466900  0.031120
F  1.944170  -0.570790  -1.258720
F  3.948600  -1.544900  -0.725410
F  3.348470  0.471110  0.212840
F  3.412580  -1.430680  1.502620
F  1.404540  -0.461140  0.973320
C  2.286988  0.632376  9.418254
C  3.748492  0.608695  9.443636
N  4.908412  0.589901  9.463781
H  1.880431  0.626815  10.433933
H  1.921519  1.530071  8.910810
H  1.893189  -0.240866  8.889773
C  -4.719842  -2.925989  8.418254
C  -3.258339  -2.949671  8.443636
N  -2.098418  -2.968465  8.463781
H  -5.126399  -2.931551  9.433933
H  -5.085311  -2.028295  7.910810
H  -5.113641  -3.799232  7.889773
C  -0.257244  7.221429  7.418254
C  1.204260  7.197747  7.443636
N  2.364180  7.178953  7.463781
H  -0.663801  7.215867  8.433933
H  -0.622713  8.119123  6.910810
H  -0.651043  6.348186  6.889773
C  3.788224  -5.398467  6.418254
C  5.249728  -5.422149  6.443636
N  6.409648  -5.440943  6.463781
H  3.381667  -5.404028  7.433933
H  3.422755  -4.500773  5.910810
H  3.394425  -6.271710  5.889773
C  -9.059490  2.087083  5.418254
C  -7.597986  2.063401  5.443636
N  -6.438066  2.044607  5.463781
H  -9.466047  2.081521  6.433933
H  -9.424959  2.984777  4.910810
H  -9.453289  1.213840  4.889773
C  6.699465  5.425511  4.418254
C  8.160969  5.401830  4.443636
N  9.320889  5.383035  4.463781
H  6.292908  5.419950  5.433933
H  6.333996  6.323206  3.910810
H  6.305666  4.552268  3.889773
C  -3.267353  -8.413957  3.418254
C  -1.805850  -8.437638  3.443636
N  -0.645929  -8.456433  3.463781
H  -3.673910  -8.419518  4.433933
H  -3.632822  -7.516262  2.910810
H  -3.661152  -9.287200  2.889773
C  -5.298224  9.225059  2.418254
C  -3.836720  9.201377  2.443636
N  -2.676800  9.182583  2.463781
H  -5.704781  9.219498  3.433933
H  -5.663693  10.122753  1.910810
H  -5.692023  8.351816  1.889773
C  8.451427  -2.759198  1.418254
C  9.912931  -2.782880  1.443636
N  11.072852  -2.801674  1.463781
H  8.044870  -2.764760  2.433933
H  8.085958  -1.861504  0.910810
H  8.057628  -3.632441  0.889773
C  -10.067405  -3.178415  0.418254
C  -8.605901  -3.202097  0.443636
N  -7.445981  -3.220891  0.463781
H  -10.473962  -3.183976  1.433933
H  -10.432874  -2.280721  -0.089190
H  -10.461204  -4.051658  -0.110227
C  3.397648  9.678390  -0.581746
C  4.859151  9.654709  -0.556364
N  6.019072  9.635915  -0.536219
H  2.991091  9.672829  0.433933
H  3.032179  10.576085  -1.089190
H  3.003849  8.805148  -1.110227
C  2.123467  -8.801311  -1.581746
C  3.584971  -8.824992  -1.556364
N  4.744891  -8.843786  -1.536219
H  1.716910  -8.806872  -0.566067
H  1.757998  -7.903616  -2.089190
H  1.729668  -9.674553  -2.110227
C  -9.212882  5.487234  -2.581746
C  -7.751379  5.463553  -2.556364
N  -6.591458  5.444759  -2.536219
H  -9.619439  5.481673  -1.566067
H  -9.578351  6.384929  -3.089190
H  -9.606681  4.613992  -3.110227
C  8.313497  2.643760  -3.581746
C  9.775000  2.620079  -3.556364
N  10.934921  2.601284  -3.536219
H  7.906940  2.638199  -2.566067
H  7.948028  3.541455  -4.089190
H  7.919698  1.770517  -4.110227
C  -5.971581  -6.673155  -4.581746
C  -4.510077  -6.696836  -4.556364
N  -3.350157  -6.715631  -4.536219
H  -6.378138  -6.678716  -3.566067
H  -6.337050  -5.775460  -5.089190
H  -6.365380  -7.546398  -5.110227
C  -1.908787  8.914772  -5.581746
C  -0.447283  8.891091  -5.556364
N  0.712638  8.872296  -5.536219
H  -2.315344  8.909211  -4.566067
H  -2.274256  9.812467  -6.089190
H  -2.302586  8.041529  -6.110227
C  4.975318  -4.264997  -6.581746
C  6.436822  -4.288678  -6.556364
N  7.596743  -4.307473  -6.536219
H  4.568761  -4.270558  -5.566067
H  4.609850  -3.367302  -7.089190
H  4.581520  -5.138240  -7.110227
C  -7.444241  0.359085  -7.581746
C  -5.982737  0.335403  -7.556364
N  -4.822817  0.316609  -7.536219
H  -7.850798  0.353523  -6.566067
H  -7.809710  1.256779  -8.089190
H  -7.838040  -0.514158  -8.110227
C  2.898480  4.348196  -8.581746
C  4.359984  4.324514  -8.556364
N  5.519904  4.305720  -8.536219
H  2.491923  4.342635  -7.566067
H  2.533011  5.245890  -9.089190
H  2.504681  3.474953  -9.110227
C  -0.979744  -2.486790  -9.581746
C  0.481760  -2.510471  -9.556364
N  1.641681  -2.529266  -9.536219
H  -1.386301  -2.492351  -8.566067
H  -1.345213  -1.589095  -10.089190
H  -1.373543  -3.360033  -10.110227
