  160

 C          2.7301500000       -3.2778400000       -1.0155400000
 C          3.9360900000       -2.9747100000       -0.3927000000
 C          4.0715700000       -1.7623700000        0.2792100000
 C          2.9959900000       -0.8829000000        0.3649400000
 C          1.7689700000       -1.1838200000       -0.2524200000
 C          1.6634900000       -2.3834400000       -0.9655500000
 N          0.6982600000       -0.2686200000       -0.1438800000
 C          0.9805200000        1.1052200000       -0.3209000000
 C          0.1606500000        1.9475500000       -1.0808500000
 C          0.4596800000        3.3014900000       -1.2117600000
 C          1.5989500000        3.8344900000       -0.6179100000
 C          2.4415700000        3.0010600000        0.1134600000
 C          2.1265200000        1.6552600000        0.2794600000
 H          2.6161800000       -4.2077900000       -1.5622000000
 H          4.7700800000       -3.6659000000       -0.4374300000
 H          5.0097200000       -1.4969000000        0.7546500000
 H          0.7474700000       -2.6196300000       -1.4929100000
 H         -0.7203900000        1.5493600000       -1.5684500000
 H         -0.2008000000        3.9353500000       -1.7936100000
 H          1.8366900000        4.8868000000       -0.7249200000
 H          3.3419800000        3.3932200000        0.5740000000
 S          3.1325400000        0.6150600000        1.3093200000
 C         -0.6681800000       -0.7426300000       -0.3081600000
 H         -1.0667000000       -0.5758100000       -1.3185300000
 H         -0.6768700000       -1.8193600000       -0.1399600000
 C         -1.6120300000       -0.1184700000        0.7206900000
 H         -1.2672000000       -0.3801500000        1.7347700000
 H         -1.6135300000        0.9790100000        0.6496500000
 O         -2.8930400000       -0.6409900000        0.4553900000
 C         -3.8918200000       -0.1449000000        1.3187400000
 H         -3.7029600000       -0.4616100000        2.3587200000
 H         -3.9147400000        0.9567800000        1.3007900000
 C         -5.2355900000       -0.6761600000        0.8660200000
 H         -5.1628900000       -1.7672600000        0.7221200000
 H         -5.9851800000       -0.4916700000        1.6556800000
 O         -5.5988400000       -0.0308300000       -0.3324200000
 C         -6.8065600000       -0.5132700000       -0.8697900000
 H         -7.6525700000       -0.3695600000       -0.1770700000
 H         -7.0043400000        0.0477600000       -1.7866600000
 H         -6.7472300000       -1.5860000000       -1.1160700000
 C          2.0029550000       -0.0879770000        9.3872540000
 C          3.4644590000       -0.1116580000        9.4126360000
 N          4.6243800000       -0.1304530000        9.4327810000
 H          1.5963980000       -0.0935380000       10.4029330000
 H          1.6374860000        0.8097180000        8.8798100000
 H          1.6091560000       -0.9612200000        8.8587730000
 C         -5.0038750000       -3.6463430000        8.3872540000
 C         -3.5423710000       -3.6700240000        8.4126360000
 N         -2.3824510000       -3.6888180000        8.4327810000
 H         -5.4104320000       -3.6519040000        9.4029330000
 H         -5.3693440000       -2.7486480000        7.8798100000
 H         -5.3976740000       -4.5195850000        7.8587730000
 C         -0.5412770000        6.5010750000        7.3872540000
 C          0.9202270000        6.4773940000        7.4126360000
 N          2.0801470000        6.4586000000        7.4327810000
 H         -0.9478340000        6.4955140000        8.4029330000
 H         -0.9067460000        7.3987700000        6.8798100000
 H         -0.9350760000        5.6278330000        6.8587730000
 C          3.5041910000       -6.1188200000        6.3872540000
 C          4.9656950000       -6.1425020000        6.4126360000
 N          6.1256160000       -6.1612960000        6.4327810000
 H          3.0976340000       -6.1243820000        7.4029330000
 H          3.1387220000       -5.2211260000        5.8798100000
 H          3.1103920000       -6.9920630000        5.8587730000
 C         -9.3435230000        1.3667290000        5.3872540000
 C         -7.8820190000        1.3430480000        5.4126360000
 N         -6.7220980000        1.3242540000        5.4327810000
 H         -9.7500800000        1.3611680000        6.4029330000
 H         -9.7089920000        2.2644240000        4.8798100000
 H         -9.7373220000        0.4934870000        4.8587730000
 C          6.4154320000        4.7051580000        4.3872540000
 C          7.8769360000        4.6814770000        4.4126360000
 N          9.0368560000        4.6626820000        4.4327810000
 H          6.0088750000        4.6995970000        5.4029330000
 H          6.0499630000        5.6028530000        3.8798100000
 H          6.0216330000        3.8319150000        3.8587730000
 C         -3.5513860000       -9.1343100000        3.3872540000
 C         -2.0898820000       -9.1579910000        3.4126360000
 N         -0.9299620000       -9.1767860000        3.4327810000
 H         -3.9579430000       -9.1398710000        4.4029330000
 H         -3.9168550000       -8.2366150000        2.8798100000
 H         -3.9451850000      -10.0075530000        2.8587730000
 C         -5.5822570000        8.5047060000        2.3872540000
 C         -4.1207530000        8.4810240000        2.4126360000
 N         -2.9608320000        8.4622300000        2.4327810000
 H         -5.9888140000        8.4991450000        3.4029330000
 H         -5.9477260000        9.4024000000        1.8798100000
 H         -5.9760560000        7.6314630000        1.8587730000
 C          8.1673950000       -3.4795520000        1.3872540000
 C          9.6288980000       -3.5032330000        1.4126360000
 N         10.7888190000       -3.5220270000        1.4327810000
 H          7.7608380000       -3.4851130000        2.4029330000
 H          7.8019260000       -2.5818570000        0.8798100000
 H          7.7735960000       -4.3527940000        0.8587730000
 C        -10.3514380000       -3.8987680000        0.3872540000
 C         -8.8899340000       -3.9224500000        0.4126360000
 N         -7.7300130000       -3.9412440000        0.4327810000
 H        -10.7579950000       -3.9043300000        1.4029330000
 H        -10.7169070000       -3.0010740000       -0.1201900000
 H        -10.7452370000       -4.7720110000       -0.1412270000
 C          3.1136150000        8.9580370000       -0.6127460000
 C          4.5751190000        8.9343560000       -0.5873640000
 N          5.7350390000        8.9155610000       -0.5672190000
 H          2.7070580000        8.9524760000        0.4029330000
 H          2.7481460000        9.8557320000       -1.1201900000
 H          2.7198160000        8.0847940000       -1.1412270000
 C          1.8394340000       -9.5216640000       -1.6127460000
 C          3.3009380000       -9.5453450000       -1.5873640000
 N          4.4608580000       -9.5641400000       -1.5672190000
 H          1.4328770000       -9.5272250000       -0.5970670000
 H          1.4739650000       -8.6239690000       -2.1201900000
 H          1.4456350000      -10.3949070000       -2.1412270000
 C         -9.4969150000        4.7668810000       -2.6127460000
 C         -8.0354110000        4.7432000000       -2.5873640000
 N         -6.8754910000        4.7244050000       -2.5672190000
 H         -9.9034720000        4.7613200000       -1.5970670000
 H         -9.8623840000        5.6645760000       -3.1201900000
 H         -9.8907140000        3.8936380000       -3.1412270000
 C          8.0294640000        1.9234070000       -3.6127460000
 C          9.4909670000        1.8997260000       -3.5873640000
 N         10.6508880000        1.8809310000       -3.5672190000
 H          7.6229070000        1.9178460000       -2.5970670000
 H          7.6639950000        2.8211010000       -4.1201900000
 H          7.6356650000        1.0501640000       -4.1412270000
 C         -6.2556140000       -7.3935080000       -4.6127460000
 C         -4.7941100000       -7.4171890000       -4.5873640000
 N         -3.6341890000       -7.4359840000       -4.5672190000
 H         -6.6621710000       -7.3990690000       -3.5970670000
 H         -6.6210830000       -6.4958130000       -5.1201900000
 H         -6.6494130000       -8.2667510000       -5.1412270000
 C         -2.1928190000        8.1944190000       -5.6127460000
 C         -0.7313160000        8.1707380000       -5.5873640000
 N          0.4286050000        8.1519430000       -5.5672190000
 H         -2.5993760000        8.1888580000       -4.5970670000
 H         -2.5582880000        9.0921140000       -6.1201900000
 H         -2.5866180000        7.3211760000       -6.1412270000
 C          4.6912860000       -4.9853500000       -6.6127460000
 C          6.1527890000       -5.0090310000       -6.5873640000
 N          7.3127100000       -5.0278260000       -6.5672190000
 H          4.2847290000       -4.9909110000       -5.5970670000
 H          4.3258170000       -4.0876550000       -7.1201900000
 H          4.2974870000       -5.8585930000       -7.1412270000
 C         -7.7282740000       -0.3612680000       -7.6127460000
 C         -6.2667700000       -0.3849500000       -7.5873640000
 N         -5.1068490000       -0.4037440000       -7.5672190000
 H         -8.1348310000       -0.3668300000       -6.5970670000
 H         -8.0937420000        0.5364260000       -8.1201900000
 H         -8.1220730000       -1.2345110000       -8.1412270000
 C          2.6144470000        3.6278430000       -8.6127460000
 C          4.0759510000        3.6041610000       -8.5873640000
 N          5.2358710000        3.5853670000       -8.5672190000
 H          2.2078900000        3.6222810000       -7.5970670000
 H          2.2489780000        4.5255370000       -9.1201900000
 H          2.2206480000        2.7546000000       -9.1412270000
 C         -1.2637760000       -3.2071430000       -9.6127460000
 C          0.1977270000       -3.2308240000       -9.5873640000
 N          1.3576480000       -3.2496190000       -9.5672190000
 H         -1.6703330000       -3.2127040000       -8.5970670000
 H         -1.6292450000       -2.3094480000      -10.1201900000
 H         -1.6575750000       -4.0803860000      -10.1412270000
