 xtb: 6.6.0 (conda-forge)
          02182501483D

 53 62  0     0  0            999 V2000
   -2.5027    3.1118    0.5557 c   0  0  0  0  0  0  0  0  0  0  0  0
   -3.1691    3.9607    0.6250 h   0  0  0  0  0  0  0  0  0  0  0  0
   -1.8371    2.6796   -0.6160 c   0  0  0  0  0  0  0  0  0  0  0  0
   -1.9091    3.1336   -1.5958 h   0  0  0  0  0  0  0  0  0  0  0  0
   -0.9635    1.6157   -0.2557 c   0  0  0  0  0  0  0  0  0  0  0  0
   -2.0433    2.3251    1.6398 c   0  0  0  0  0  0  0  0  0  0  0  0
   -2.3032    2.4678    2.6798 h   0  0  0  0  0  0  0  0  0  0  0  0
   -1.0991    1.3949    1.1452 c   0  0  0  0  0  0  0  0  0  0  0  0
   -0.5434    0.6813    1.7366 h   0  0  0  0  0  0  0  0  0  0  0  0
   -4.9009    0.7684    0.0226 c   0  0  0  0  0  0  0  0  0  0  0  0
   -5.7362    1.4521    0.1018 h   0  0  0  0  0  0  0  0  0  0  0  0
   -4.2371    0.4023   -1.1764 c   0  0  0  0  0  0  0  0  0  0  0  0
   -4.4776    0.7621   -2.1685 h   0  0  0  0  0  0  0  0  0  0  0  0
   -3.2953   -0.6101   -0.8631 c   0  0  0  0  0  0  0  0  0  0  0  0
   -2.6793   -1.1518   -1.5693 h   0  0  0  0  0  0  0  0  0  0  0  0
   -4.3660   -0.0179    1.0750 c   0  0  0  0  0  0  0  0  0  0  0  0
   -4.7211   -0.0313    2.0972 h   0  0  0  0  0  0  0  0  0  0  0  0
   -3.3740   -0.8693    0.5266 c   0  0  0  0  0  0  0  0  0  0  0  0
   -2.8251   -1.6391    1.0529 h   0  0  0  0  0  0  0  0  0  0  0  0
   -2.8808    1.1064    0.2025 fe  0  0  0  0  0  0  0  0  0  0  0  0
   -0.0783    0.8737   -1.2079 c   0  0  0  0  0  0  0  0  0  0  0  0
   -0.3940    1.0492   -2.2393 h   0  0  0  0  0  0  0  0  0  0  0  0
   -0.0960   -0.1955   -1.0090 h   0  0  0  0  0  0  0  0  0  0  0  0
    1.3803    1.2827   -1.1383 n   0  0  0  0  0  0  0  0  0  0  0  0
    1.9098    1.0190    0.2544 c   0  0  0  0  0  0  0  0  0  0  0  0
    1.3866    1.7106    0.9172 h   0  0  0  0  0  0  0  0  0  0  0  0
    1.6253   -0.0038    0.5033 h   0  0  0  0  0  0  0  0  0  0  0  0
    1.5069    2.7190   -1.4802 c   0  0  0  0  0  0  0  0  0  0  0  0
    2.5568    3.0038   -1.4463 h   0  0  0  0  0  0  0  0  0  0  0  0
    1.1115    2.8789   -2.4822 h   0  0  0  0  0  0  0  0  0  0  0  0
    0.9335    3.3011   -0.7604 h   0  0  0  0  0  0  0  0  0  0  0  0
    2.1146    0.4605   -2.1371 c   0  0  0  0  0  0  0  0  0  0  0  0
    1.6924    0.6477   -3.1228 h   0  0  0  0  0  0  0  0  0  0  0  0
    3.1665    0.7388   -2.1237 h   0  0  0  0  0  0  0  0  0  0  0  0
    1.9990   -0.5894   -1.8750 h   0  0  0  0  0  0  0  0  0  0  0  0
    0.4344   -2.8045   -0.0024 p   0  0  0  0  0  0  0  0  0  0  0  0
   -0.1746   -2.1608   -1.4178 f   0  0  0  0  0  0  0  0  0  0  0  0
    1.8902   -2.0316   -0.3532 f   0  0  0  0  0  0  0  0  0  0  0  0
    0.9309   -4.1169   -0.8115 f   0  0  0  0  0  0  0  0  0  0  0  0
    1.0682   -3.3525    1.3865 f   0  0  0  0  0  0  0  0  0  0  0  0
   -1.0136   -3.4669    0.3245 f   0  0  0  0  0  0  0  0  0  0  0  0
   -0.0416   -1.3976    0.7825 f   0  0  0  0  0  0  0  0  0  0  0  0
    3.4001    1.1962    0.3641 c   0  0  0  0  0  0  0  0  0  0  0  0
    4.2446    0.0971    0.2086 c   0  0  0  0  0  0  0  0  0  0  0  0
    3.9474    2.4414    0.6714 c   0  0  0  0  0  0  0  0  0  0  0  0
    5.6179    0.2499    0.3319 c   0  0  0  0  0  0  0  0  0  0  0  0
    3.8239   -0.8810    0.0071 h   0  0  0  0  0  0  0  0  0  0  0  0
    5.3223    2.5899    0.7926 c   0  0  0  0  0  0  0  0  0  0  0  0
    3.2979    3.2948    0.8377 h   0  0  0  0  0  0  0  0  0  0  0  0
    6.1592    1.4963    0.6166 c   0  0  0  0  0  0  0  0  0  0  0  0
    6.2666   -0.6100    0.2110 h   0  0  0  0  0  0  0  0  0  0  0  0
    5.7387    3.5619    1.0321 h   0  0  0  0  0  0  0  0  0  0  0  0
    7.2324    1.6142    0.7133 h   0  0  0  0  0  0  0  0  0  0  0  0
  1  2  1  0  0  0  0
  1  3  4  0  0  0  0
  3  4  1  0  0  0  0
  3  5  4  0  0  0  0
  1  6  4  0  0  0  0
  6  7  1  0  0  0  0
  5  8  4  0  0  0  0
  6  8  4  0  0  0  0
  8  9  1  0  0  0  0
 10 11  1  0  0  0  0
 10 12  4  0  0  0  0
 12 13  1  0  0  0  0
 12 14  4  0  0  0  0
 14 15  1  0  0  0  0
 10 16  4  0  0  0  0
 16 17  1  0  0  0  0
 14 18  4  0  0  0  0
 16 18  4  0  0  0  0
 18 19  1  0  0  0  0
  1 20  1  0  0  0  0
  3 20  1  0  0  0  0
  5 20  1  0  0  0  0
  6 20  1  0  0  0  0
  8 20  1  0  0  0  0
 10 20  1  0  0  0  0
 12 20  1  0  0  0  0
 14 20  1  0  0  0  0
 16 20  1  0  0  0  0
 18 20  1  0  0  0  0
  5 21  1  0  0  0  0
 21 22  1  0  0  0  0
 21 23  1  0  0  0  0
 21 24  1  0  0  0  0
 24 25  1  0  0  0  0
 25 26  1  0  0  0  0
 25 27  1  0  0  0  0
 24 28  1  0  0  0  0
 28 29  1  0  0  0  0
 28 30  1  0  0  0  0
 28 31  1  0  0  0  0
 24 32  1  0  0  0  0
 32 33  1  0  0  0  0
 32 34  1  0  0  0  0
 32 35  1  0  0  0  0
 36 37  1  0  0  0  0
 36 38  1  0  0  0  0
 36 39  1  0  0  0  0
 36 40  1  0  0  0  0
 36 41  1  0  0  0  0
 36 42  1  0  0  0  0
 25 43  1  0  0  0  0
 43 44  4  0  0  0  0
 43 45  4  0  0  0  0
 44 46  4  0  0  0  0
 44 47  1  0  0  0  0
 45 48  4  0  0  0  0
 45 49  1  0  0  0  0
 46 50  4  0  0  0  0
 48 50  4  0  0  0  0
 46 51  1  0  0  0  0
 48 52  1  0  0  0  0
 50 53  1  0  0  0  0
M  END
