163
Solvated system with counter ions
C  -3.535610  0.974710  0.779180
H  -4.614870  0.952210  0.759790
C  -2.692630  1.504680  -0.237820
H  -3.014700  1.952560  -1.167340
C  -1.328050  1.298630  0.161610
C  -2.704270  0.456970  1.817970
H  -3.047750  -0.031610  2.717440
C  -1.344060  0.645880  1.444270
H  -0.473630  0.306840  1.981840
C  -3.393070  -2.000190  -0.748290
H  -4.471740  -2.024080  -0.798510
C  -2.515930  -1.468220  -1.741510
H  -2.817720  -1.020170  -2.677000
C  -1.176440  -1.621750  -1.273470
H  -0.268750  -1.307550  -1.766090
C  -2.589960  -2.480200  0.330790
H  -2.958650  -2.924460  1.243680
C  -1.221450  -2.244330  0.005990
H  -0.354560  -2.456520  0.611670
Fe  -2.273720  -0.477100  0.039460
C  -0.137850  1.552170  -0.688170
H  -0.434620  1.715360  -1.726730
H  0.561370  0.726470  -0.645060
N  0.695680  2.797380  -0.308570
C  1.211680  2.676840  1.099420
H  0.361770  2.656150  1.778650
H  1.787600  1.756760  1.175330
H  1.839830  3.545210  1.304970
C  -0.135810  4.029200  -0.439640
H  0.459830  4.897140  -0.152540
H  -0.460670  4.128150  -1.476590
H  -1.006290  3.933210  0.209310
C  1.869270  2.850480  -1.246230
H  1.495500  2.919050  -2.268710
H  2.467280  3.731750  -1.008230
H  2.455520  1.941430  -1.110860
P  2.705140  -1.040380  0.129320
F  1.976890  -2.466880  0.031840
F  1.944050  -0.571190  -1.258590
F  3.948850  -1.544650  -0.725530
F  3.348440  0.471450  0.212250
F  3.413440  -1.429850  1.502560
F  1.405010  -0.460920  0.973550
C  1.974632  0.632311  8.468194
C  3.436135  0.608630  8.493576
N  4.596056  0.589835  8.513720
H  1.568075  0.626750  9.483873
H  1.609163  1.530006  7.960749
H  1.580833  -0.240932  7.939713
C  -4.331516  -2.570218  7.568194
C  -2.870012  -2.593900  7.593576
N  -1.710092  -2.612694  7.613720
H  -4.738073  -2.575780  8.583873
H  -4.696985  -1.672524  7.060749
H  -4.725315  -3.443461  7.039713
C  -0.315177  6.562458  6.668194
C  1.146326  6.538777  6.693576
N  2.306247  6.519982  6.713720
H  -0.721734  6.556897  7.683873
H  -0.680646  7.460152  6.160749
H  -0.708976  5.689215  6.139713
C  3.325744  -4.795448  5.768194
C  4.787248  -4.819130  5.793576
N  5.947168  -4.837924  5.813720
H  2.919187  -4.801009  6.783873
H  2.960275  -3.897754  5.260749
H  2.931945  -5.668691  5.239713
C  -8.237199  1.941547  4.868194
C  -6.775695  1.917865  4.893576
N  -5.615774  1.899071  4.913720
H  -8.643756  1.935985  5.883873
H  -8.602668  2.839241  4.360749
H  -8.630998  1.068304  4.339713
C  5.945861  4.946132  3.968194
C  7.407364  4.922451  3.993576
N  8.567285  4.903656  4.013720
H  5.539304  4.940571  4.983873
H  5.580392  5.843827  3.460749
H  5.552062  4.072890  3.439713
C  -3.024276  -7.509389  3.068194
C  -1.562772  -7.533070  3.093576
N  -0.402852  -7.551865  3.113720
H  -3.430833  -7.514950  4.083873
H  -3.389745  -6.611694  2.560749
H  -3.418075  -8.382632  2.539713
C  -4.852059  8.365725  2.168194
C  -3.390556  8.342044  2.193576
N  -2.230635  8.323249  2.213720
H  -5.258616  8.360164  3.183873
H  -5.217528  9.263420  1.660749
H  -5.245858  7.492482  1.639713
C  7.522627  -2.420106  1.268194
C  8.984130  -2.443788  1.293576
N  10.144051  -2.462582  1.313720
H  7.116070  -2.425668  2.283873
H  7.157158  -1.522412  0.760749
H  7.128828  -3.293349  0.739713
C  -9.144322  -2.797401  0.368194
C  -7.682818  -2.821083  0.393576
N  -6.522898  -2.839877  0.413720
H  -9.550879  -2.802963  1.383873
H  -9.509791  -1.899707  -0.139251
H  -9.538121  -3.670644  -0.160287
C  2.974225  8.773724  -0.531806
C  4.435729  8.750042  -0.506424
N  5.595649  8.731248  -0.486280
H  2.567668  8.768162  0.483873
H  2.608756  9.671418  -1.039251
H  2.580426  7.900481  -1.060287
C  1.827462  -7.858007  -1.431806
C  3.288966  -7.881689  -1.406424
N  4.448887  -7.900483  -1.386280
H  1.420905  -7.863569  -0.416127
H  1.461993  -6.960313  -1.939251
H  1.433663  -8.731250  -1.960287
C  -8.375252  5.001683  -2.331806
C  -6.913748  4.978002  -2.306424
N  -5.753828  4.959207  -2.286280
H  -8.781809  4.996122  -1.316127
H  -8.740721  5.899378  -2.839251
H  -8.769051  4.128440  -2.860287
C  7.398489  2.442556  -3.231806
C  8.859993  2.418875  -3.206424
N  10.019913  2.400080  -3.186280
H  6.991932  2.436995  -2.216127
H  7.033020  3.340251  -3.739251
H  7.004690  1.569313  -3.760287
C  -5.458081  -5.942667  -4.131806
C  -3.996577  -5.966348  -4.106424
N  -2.836656  -5.985143  -4.086280
H  -5.864638  -5.948228  -3.116127
H  -5.823550  -5.044972  -4.639251
H  -5.851880  -6.815910  -4.660287
C  -1.801566  8.086467  -5.031806
C  -0.340062  8.062786  -5.006424
N  0.819858  8.043991  -4.986280
H  -2.208123  8.080906  -4.016127
H  -2.167035  8.984162  -5.539251
H  -2.195365  7.213224  -5.560287
C  4.394129  -3.775325  -5.931806
C  5.855633  -3.799006  -5.906424
N  7.015553  -3.817801  -5.886280
H  3.987572  -3.780886  -4.916127
H  4.028660  -2.877630  -6.439251
H  4.000330  -4.648568  -6.460287
C  -6.783475  0.386349  -6.831806
C  -5.321971  0.362667  -6.806424
N  -4.162050  0.343873  -6.786280
H  -7.190032  0.380787  -5.816127
H  -7.148943  1.284043  -7.339251
H  -7.177273  -0.486894  -7.360287
C  2.524974  3.976549  -7.731806
C  3.986478  3.952867  -7.706424
N  5.146398  3.934073  -7.686280
H  2.118417  3.970987  -6.716127
H  2.159505  4.874243  -8.239251
H  2.131175  3.103306  -8.260287
C  -0.965427  -2.174938  -8.631806
C  0.496077  -2.198620  -8.606424
N  1.655997  -2.217414  -8.586280
H  -1.371984  -2.180500  -7.616127
H  -1.330896  -1.277244  -9.139251
H  -1.359226  -3.048181  -9.160287
