 xtb: 6.6.0 (conda-forge)
          02132500143D

163149  0     0  0            999 V2000
   -3.5356    0.9747    0.7792 C   0  0  0  0  0  0  0  0  0  0  0  0
   -4.5750    1.2467    0.8035 H   0  0  0  0  0  0  0  0  0  0  0  0
   -2.5371    1.5840   -0.0111 C   0  0  0  0  0  0  0  0  0  0  0  0
   -2.6773    2.4024   -0.6939 H   0  0  0  0  0  0  0  0  0  0  0  0
   -1.2933    0.9629    0.2962 C   0  0  0  0  0  0  0  0  0  0  0  0
   -2.9213   -0.0194    1.5760 C   0  0  0  0  0  0  0  0  0  0  0  0
   -3.4137   -0.6364    2.3049 H   0  0  0  0  0  0  0  0  0  0  0  0
   -1.5420   -0.0303    1.2838 C   0  0  0  0  0  0  0  0  0  0  0  0
   -0.8049   -0.6713    1.7290 H   0  0  0  0  0  0  0  0  0  0  0  0
   -3.9307   -1.4199   -1.7687 C   0  0  0  0  0  0  0  0  0  0  0  0
   -4.9967   -1.2885   -1.8298 H   0  0  0  0  0  0  0  0  0  0  0  0
   -2.9619   -0.7148   -2.5175 C   0  0  0  0  0  0  0  0  0  0  0  0
   -3.1616    0.0578   -3.2370 H   0  0  0  0  0  0  0  0  0  0  0  0
   -1.6914   -1.2389   -2.1897 C   0  0  0  0  0  0  0  0  0  0  0  0
   -0.7466   -0.9451   -2.6106 H   0  0  0  0  0  0  0  0  0  0  0  0
   -3.2559   -2.3811   -0.9789 C   0  0  0  0  0  0  0  0  0  0  0  0
   -3.7200   -3.1006   -0.3289 H   0  0  0  0  0  0  0  0  0  0  0  0
   -1.8745   -2.2686   -1.2413 C   0  0  0  0  0  0  0  0  0  0  0  0
   -1.0899   -2.8654   -0.8143 H   0  0  0  0  0  0  0  0  0  0  0  0
   -2.5841   -0.4532   -0.4732 Fe  0  0  0  0  0  0  0  0  0  0  0  0
    0.0177    1.2731   -0.3453 C   0  0  0  0  0  0  0  0  0  0  0  0
   -0.1527    1.6817   -1.3431 H   0  0  0  0  0  0  0  0  0  0  0  0
    0.6025    0.3564   -0.4318 H   0  0  0  0  0  0  0  0  0  0  0  0
    0.8375    2.2756    0.4090 N   0  0  0  0  0  0  0  0  0  0  0  0
    1.1758    1.7521    1.7417 C   0  0  0  0  0  0  0  0  0  0  0  0
    0.2655    1.5777    2.3110 H   0  0  0  0  0  0  0  0  0  0  0  0
    1.7173    0.8131    1.6412 H   0  0  0  0  0  0  0  0  0  0  0  0
    1.8009    2.4652    2.2741 H   0  0  0  0  0  0  0  0  0  0  0  0
    0.0784    3.5308    0.5438 C   0  0  0  0  0  0  0  0  0  0  0  0
    0.6824    4.2686    1.0652 H   0  0  0  0  0  0  0  0  0  0  0  0
   -0.1725    3.9029   -0.4479 H   0  0  0  0  0  0  0  0  0  0  0  0
   -0.8344    3.3488    1.1065 H   0  0  0  0  0  0  0  0  0  0  0  0
    2.0699    2.5348   -0.3531 C   0  0  0  0  0  0  0  0  0  0  0  0
    1.8122    2.9402   -1.3299 H   0  0  0  0  0  0  0  0  0  0  0  0
    2.6912    3.2497    0.1817 H   0  0  0  0  0  0  0  0  0  0  0  0
    2.6259    1.6081   -0.4832 H   0  0  0  0  0  0  0  0  0  0  0  0
    2.2892   -2.4112   -0.0990 P   0  0  0  0  0  0  0  0  0  0  0  0
    1.6979   -3.9058   -0.3076 F   0  0  0  0  0  0  0  0  0  0  0  0
    1.6080   -1.9301   -1.4832 F   0  0  0  0  0  0  0  0  0  0  0  0
    3.6349   -2.8335   -0.9080 F   0  0  0  0  0  0  0  0  0  0  0  0
    2.8889   -0.9142    0.1131 F   0  0  0  0  0  0  0  0  0  0  0  0
    2.9951   -2.8833    1.2883 F   0  0  0  0  0  0  0  0  0  0  0  0
    0.9682   -1.9899    0.7230 F   0  0  0  0  0  0  0  0  0  0  0  0
    5.8661    1.3682    7.2545 C   0  0  0  0  0  0  0  0  0  0  0  0
    4.5058    1.5408    6.8421 C   0  0  0  0  0  0  0  0  0  0  0  0
    3.4179    1.6845    6.5152 N   0  0  0  0  0  0  0  0  0  0  0  0
    5.9142    0.6199    8.0446 H   0  0  0  0  0  0  0  0  0  0  0  0
    6.4611    1.0340    6.4057 H   0  0  0  0  0  0  0  0  0  0  0  0
    6.2559    2.3162    7.6233 H   0  0  0  0  0  0  0  0  0  0  0  0
   -1.3356    0.5105    7.7661 C   0  0  0  0  0  0  0  0  0  0  0  0
   -1.7176   -0.6858    7.0782 C   0  0  0  0  0  0  0  0  0  0  0  0
   -2.0250   -1.6425    6.5292 N   0  0  0  0  0  0  0  0  0  0  0  0
   -0.4563    0.3114    8.3774 H   0  0  0  0  0  0  0  0  0  0  0  0
   -1.1023    1.2886    7.0407 H   0  0  0  0  0  0  0  0  0  0  0  0
   -2.1548    0.8404    8.4037 H   0  0  0  0  0  0  0  0  0  0  0  0
    0.3832    6.0725    7.5484 C   0  0  0  0  0  0  0  0  0  0  0  0
    0.0482    5.7728    6.1892 C   0  0  0  0  0  0  0  0  0  0  0  0
   -0.2191    5.5308    5.1026 N   0  0  0  0  0  0  0  0  0  0  0  0
    0.8081    7.0739    7.6052 H   0  0  0  0  0  0  0  0  0  0  0  0
   -0.5145    6.0214    8.1634 H   0  0  0  0  0  0  0  0  0  0  0  0
    1.1151    5.3504    7.9081 H   0  0  0  0  0  0  0  0  0  0  0  0
    2.8122   -3.3025    4.7782 C   0  0  0  0  0  0  0  0  0  0  0  0
    4.1443   -3.3115    5.3024 C   0  0  0  0  0  0  0  0  0  0  0  0
    5.2077   -3.3220    5.7274 N   0  0  0  0  0  0  0  0  0  0  0  0
    2.2721   -2.4432    5.1719 H   0  0  0  0  0  0  0  0  0  0  0  0
    2.8529   -3.2367    3.6916 H   0  0  0  0  0  0  0  0  0  0  0  0
    2.3027   -4.2199    5.0685 H   0  0  0  0  0  0  0  0  0  0  0  0
   -5.1434    3.6609    4.9166 C   0  0  0  0  0  0  0  0  0  0  0  0
   -4.8818    4.0900    6.2575 C   0  0  0  0  0  0  0  0  0  0  0  0
   -4.6704    4.4282    7.3311 N   0  0  0  0  0  0  0  0  0  0  0  0
   -5.1944    2.5732    4.8889 H   0  0  0  0  0  0  0  0  0  0  0  0
   -6.0909    4.0784    4.5790 H   0  0  0  0  0  0  0  0  0  0  0  0
   -4.3433    4.0045    4.2632 H   0  0  0  0  0  0  0  0  0  0  0  0
    4.9378    5.9920    3.7784 C   0  0  0  0  0  0  0  0  0  0  0  0
    5.0994    6.2861    5.1707 C   0  0  0  0  0  0  0  0  0  0  0  0
    5.2243    6.5222    6.2843 N   0  0  0  0  0  0  0  0  0  0  0  0
    3.9088    6.1933    3.4852 H   0  0  0  0  0  0  0  0  0  0  0  0
    5.6095    6.6199    3.1945 H   0  0  0  0  0  0  0  0  0  0  0  0
    5.1717    4.9431    3.6008 H   0  0  0  0  0  0  0  0  0  0  0  0
   -2.1404   -5.3836    3.3677 C   0  0  0  0  0  0  0  0  0  0  0  0
   -2.2580   -6.5444    2.5374 C   0  0  0  0  0  0  0  0  0  0  0  0
   -2.3549   -7.4734    1.8746 N   0  0  0  0  0  0  0  0  0  0  0  0
   -1.8104   -5.6794    4.3625 H   0  0  0  0  0  0  0  0  0  0  0  0
   -1.4141   -4.6989    2.9325 H   0  0  0  0  0  0  0  0  0  0  0  0
   -3.1071   -4.8880    3.4416 H   0  0  0  0  0  0  0  0  0  0  0  0
   -2.3723    8.0642    1.0804 C   0  0  0  0  0  0  0  0  0  0  0  0
   -2.4415    8.0747   -0.3497 C   0  0  0  0  0  0  0  0  0  0  0  0
   -2.4925    8.0825   -1.4937 N   0  0  0  0  0  0  0  0  0  0  0  0
   -1.3293    8.0476    1.3933 H   0  0  0  0  0  0  0  0  0  0  0  0
   -2.8553    8.9579    1.4734 H   0  0  0  0  0  0  0  0  0  0  0  0
   -2.8812    7.1810    1.4632 H   0  0  0  0  0  0  0  0  0  0  0  0
    6.5309   -1.5011    0.9878 C   0  0  0  0  0  0  0  0  0  0  0  0
    6.3760   -0.1862    1.5303 C   0  0  0  0  0  0  0  0  0  0  0  0
    6.2563    0.8680    1.9607 N   0  0  0  0  0  0  0  0  0  0  0  0
    6.9360   -2.1670    1.7481 H   0  0  0  0  0  0  0  0  0  0  0  0
    5.5586   -1.8719    0.6642 H   0  0  0  0  0  0  0  0  0  0  0  0
    7.2040   -1.4666    0.1325 H   0  0  0  0  0  0  0  0  0  0  0  0
  -11.2033   -4.0925   -2.0320 C   0  0  0  0  0  0  0  0  0  0  0  0
  -10.0900   -3.3905   -2.5988 C   0  0  0  0  0  0  0  0  0  0  0  0
   -9.2017   -2.8271   -3.0505 N   0  0  0  0  0  0  0  0  0  0  0  0
  -10.9630   -4.3906   -1.0123 H   0  0  0  0  0  0  0  0  0  0  0  0
  -12.0769   -3.4418   -2.0245 H   0  0  0  0  0  0  0  0  0  0  0  0
  -11.4153   -4.9785   -2.6293 H   0  0  0  0  0  0  0  0  0  0  0  0
    2.2876    8.9518   -2.7627 C   0  0  0  0  0  0  0  0  0  0  0  0
    2.5692    8.3173   -1.5109 C   0  0  0  0  0  0  0  0  0  0  0  0
    2.7919    7.8121   -0.5077 N   0  0  0  0  0  0  0  0  0  0  0  0
    1.6691    8.2922   -3.3694 H   0  0  0  0  0  0  0  0  0  0  0  0
    1.7570    9.8865   -2.5861 H   0  0  0  0  0  0  0  0  0  0  0  0
    3.2212    9.1530   -3.2865 H   0  0  0  0  0  0  0  0  0  0  0  0
    1.1322   -6.7925   -2.1795 C   0  0  0  0  0  0  0  0  0  0  0  0
    0.8688   -6.2619   -3.4824 C   0  0  0  0  0  0  0  0  0  0  0  0
    0.6581   -5.8424   -4.5269 N   0  0  0  0  0  0  0  0  0  0  0  0
    1.9774   -7.4774   -2.2285 H   0  0  0  0  0  0  0  0  0  0  0  0
    1.3686   -5.9740   -1.5007 H   0  0  0  0  0  0  0  0  0  0  0  0
    0.2529   -7.3212   -1.8151 H   0  0  0  0  0  0  0  0  0  0  0  0
   -6.5462    4.6455   -2.2847 C   0  0  0  0  0  0  0  0  0  0  0  0
   -6.6726    4.9755   -0.8967 C   0  0  0  0  0  0  0  0  0  0  0  0
   -6.7696    5.2329    0.2148 N   0  0  0  0  0  0  0  0  0  0  0  0
   -6.5118    3.5630   -2.3997 H   0  0  0  0  0  0  0  0  0  0  0  0
   -7.4002    5.0414   -2.8326 H   0  0  0  0  0  0  0  0  0  0  0  0
   -5.6297    5.0820   -2.6787 H   0  0  0  0  0  0  0  0  0  0  0  0
    7.0215    4.4317   -1.6298 C   0  0  0  0  0  0  0  0  0  0  0  0
    8.0318    4.7728   -2.5865 C   0  0  0  0  0  0  0  0  0  0  0  0
    8.8402    5.0485   -3.3492 N   0  0  0  0  0  0  0  0  0  0  0  0
    7.4594    4.4113   -0.6329 H   0  0  0  0  0  0  0  0  0  0  0  0
    6.2249    5.1730   -1.6664 H   0  0  0  0  0  0  0  0  0  0  0  0
    6.6155    3.4494   -1.8670 H   0  0  0  0  0  0  0  0  0  0  0  0
   -4.6705   -5.3094   -5.1232 C   0  0  0  0  0  0  0  0  0  0  0  0
   -4.9474   -4.8385   -6.4469 C   0  0  0  0  0  0  0  0  0  0  0  0
   -5.1712   -4.4606   -7.5045 N   0  0  0  0  0  0  0  0  0  0  0  0
   -3.6957   -4.9439   -4.8040 H   0  0  0  0  0  0  0  0  0  0  0  0
   -5.4363   -4.9438   -4.4406 H   0  0  0  0  0  0  0  0  0  0  0  0
   -4.6670   -6.3986   -5.1184 H   0  0  0  0  0  0  0  0  0  0  0  0
   -0.9920    4.3702   -5.0195 C   0  0  0  0  0  0  0  0  0  0  0  0
   -0.4913    3.9258   -3.7596 C   0  0  0  0  0  0  0  0  0  0  0  0
   -0.1004    3.5709   -2.7429 N   0  0  0  0  0  0  0  0  0  0  0  0
   -1.4376    5.3575   -4.9041 H   0  0  0  0  0  0  0  0  0  0  0  0
   -0.1755    4.4210   -5.7384 H   0  0  0  0  0  0  0  0  0  0  0  0
   -1.7452    3.6704   -5.3795 H   0  0  0  0  0  0  0  0  0  0  0  0
    4.0159   -2.2023   -4.3226 C   0  0  0  0  0  0  0  0  0  0  0  0
    5.0183   -1.1968   -4.1454 C   0  0  0  0  0  0  0  0  0  0  0  0
    5.8199   -0.3906   -4.0089 N   0  0  0  0  0  0  0  0  0  0  0  0
    3.5622   -2.4261   -3.3582 H   0  0  0  0  0  0  0  0  0  0  0  0
    3.2497   -1.8394   -5.0050 H   0  0  0  0  0  0  0  0  0  0  0  0
    4.4682   -3.1065   -4.7265 H   0  0  0  0  0  0  0  0  0  0  0  0
   -7.3258    0.1024   -7.3860 C   0  0  0  0  0  0  0  0  0  0  0  0
   -6.4164    1.0953   -6.8989 C   0  0  0  0  0  0  0  0  0  0  0  0
   -5.6902    1.8894   -6.5077 N   0  0  0  0  0  0  0  0  0  0  0  0
   -7.4991   -0.6421   -6.6100 H   0  0  0  0  0  0  0  0  0  0  0  0
   -8.2700    0.5743   -7.6547 H   0  0  0  0  0  0  0  0  0  0  0  0
   -6.8997   -0.3833   -8.2629 H   0  0  0  0  0  0  0  0  0  0  0  0
    5.2203    3.5384   -7.1308 C   0  0  0  0  0  0  0  0  0  0  0  0
    4.5923    4.5426   -6.3264 C   0  0  0  0  0  0  0  0  0  0  0  0
    4.0873    5.3464   -5.6862 N   0  0  0  0  0  0  0  0  0  0  0  0
    4.5767    2.6610   -7.1827 H   0  0  0  0  0  0  0  0  0  0  0  0
    5.3872    3.9281   -8.1341 H   0  0  0  0  0  0  0  0  0  0  0  0
    6.1746    3.2617   -6.6843 H   0  0  0  0  0  0  0  0  0  0  0  0
   -1.1881   -1.4703   -7.5464 C   0  0  0  0  0  0  0  0  0  0  0  0
   -0.2274   -0.4150   -7.6635 C   0  0  0  0  0  0  0  0  0  0  0  0
    0.5398    0.4303   -7.7557 N   0  0  0  0  0  0  0  0  0  0  0  0
   -0.8556   -2.1835   -6.7931 H   0  0  0  0  0  0  0  0  0  0  0  0
   -2.1504   -1.0538   -7.2524 H   0  0  0  0  0  0  0  0  0  0  0  0
   -1.2910   -1.9788   -8.5041 H   0  0  0  0  0  0  0  0  0  0  0  0
  1  2  1  0  0  0  0
  1  3  4  0  0  0  0
  3  4  1  0  0  0  0
  3  5  4  0  0  0  0
  1  6  4  0  0  0  0
  6  7  1  0  0  0  0
  5  8  4  0  0  0  0
  6  8  4  0  0  0  0
  8  9  1  0  0  0  0
 10 11  1  0  0  0  0
 10 12  4  0  0  0  0
 12 13  1  0  0  0  0
 12 14  4  0  0  0  0
 14 15  1  0  0  0  0
 10 16  4  0  0  0  0
 16 17  1  0  0  0  0
 14 18  4  0  0  0  0
 16 18  4  0  0  0  0
 18 19  1  0  0  0  0
  1 20  1  0  0  0  0
  3 20  1  0  0  0  0
  5 20  1  0  0  0  0
  8 20  1  0  0  0  0
 10 20  1  0  0  0  0
 12 20  1  0  0  0  0
 14 20  1  0  0  0  0
 16 20  1  0  0  0  0
  5 21  1  0  0  0  0
 21 22  1  0  0  0  0
 21 23  1  0  0  0  0
 21 24  1  0  0  0  0
 24 25  1  0  0  0  0
 25 26  1  0  0  0  0
 25 27  1  0  0  0  0
 25 28  1  0  0  0  0
 24 29  1  0  0  0  0
 29 30  1  0  0  0  0
 29 31  1  0  0  0  0
 29 32  1  0  0  0  0
 24 33  1  0  0  0  0
 33 34  1  0  0  0  0
 33 35  1  0  0  0  0
 33 36  1  0  0  0  0
 37 38  1  0  0  0  0
 37 39  1  0  0  0  0
 37 40  1  0  0  0  0
 37 41  1  0  0  0  0
 37 42  1  0  0  0  0
 37 43  1  0  0  0  0
 44 45  1  0  0  0  0
 45 46  3  0  0  0  0
 44 47  1  0  0  0  0
 44 48  1  0  0  0  0
 44 49  1  0  0  0  0
 50 51  1  0  0  0  0
 51 52  3  0  0  0  0
 50 53  1  0  0  0  0
 50 54  1  0  0  0  0
 50 55  1  0  0  0  0
 56 57  1  0  0  0  0
 57 58  3  0  0  0  0
 56 59  1  0  0  0  0
 56 60  1  0  0  0  0
 56 61  1  0  0  0  0
 62 63  1  0  0  0  0
 63 64  3  0  0  0  0
 62 65  1  0  0  0  0
 62 66  1  0  0  0  0
 62 67  1  0  0  0  0
 68 69  1  0  0  0  0
 69 70  3  0  0  0  0
 68 71  1  0  0  0  0
 68 72  1  0  0  0  0
 68 73  1  0  0  0  0
 74 75  1  0  0  0  0
 75 76  3  0  0  0  0
 74 77  1  0  0  0  0
 74 78  1  0  0  0  0
 74 79  1  0  0  0  0
 80 81  1  0  0  0  0
 81 82  3  0  0  0  0
 80 83  1  0  0  0  0
 80 84  1  0  0  0  0
 80 85  1  0  0  0  0
 86 87  1  0  0  0  0
 87 88  3  0  0  0  0
 86 89  1  0  0  0  0
 86 90  1  0  0  0  0
 86 91  1  0  0  0  0
 92 93  1  0  0  0  0
 93 94  3  0  0  0  0
 92 95  1  0  0  0  0
 92 96  1  0  0  0  0
 92 97  1  0  0  0  0
 98 99  1  0  0  0  0
 99100  3  0  0  0  0
 98101  1  0  0  0  0
 98102  1  0  0  0  0
 98103  1  0  0  0  0
104105  1  0  0  0  0
105106  3  0  0  0  0
104107  1  0  0  0  0
104108  1  0  0  0  0
104109  1  0  0  0  0
110111  1  0  0  0  0
111112  3  0  0  0  0
110113  1  0  0  0  0
110114  1  0  0  0  0
110115  1  0  0  0  0
116117  1  0  0  0  0
117118  3  0  0  0  0
116119  1  0  0  0  0
116120  1  0  0  0  0
116121  1  0  0  0  0
122123  1  0  0  0  0
123124  3  0  0  0  0
122125  1  0  0  0  0
122126  1  0  0  0  0
122127  1  0  0  0  0
128129  1  0  0  0  0
129130  3  0  0  0  0
128131  1  0  0  0  0
128132  1  0  0  0  0
128133  1  0  0  0  0
134135  1  0  0  0  0
135136  3  0  0  0  0
134137  1  0  0  0  0
134138  1  0  0  0  0
134139  1  0  0  0  0
140141  1  0  0  0  0
141142  3  0  0  0  0
140143  1  0  0  0  0
140144  1  0  0  0  0
140145  1  0  0  0  0
146147  1  0  0  0  0
147148  3  0  0  0  0
146149  1  0  0  0  0
146150  1  0  0  0  0
146151  1  0  0  0  0
152153  1  0  0  0  0
153154  3  0  0  0  0
152155  1  0  0  0  0
152156  1  0  0  0  0
152157  1  0  0  0  0
158159  1  0  0  0  0
159160  3  0  0  0  0
158161  1  0  0  0  0
158162  1  0  0  0  0
158163  1  0  0  0  0
M  END
